
     RDKit          3D

 59 62  0  0  0  0  0  0  0  0999 V2000
   -2.0015    4.6669   -4.3140 C   0  0  0  0  0  0  0  0  0  0  0  0
   -1.1540    3.4312   -4.3472 C   0  0  0  0  0  0  0  0  0  0  0  0
   -1.1342    2.4605   -3.3667 C   0  0  0  0  0  0  0  0  0  0  0  0
   -0.2414    1.5177   -3.8462 C   0  0  0  0  0  0  0  0  0  0  0  0
    0.2366    1.8982   -5.0473 N   0  0  0  0  0  0  0  0  0  0  0  0
   -0.3075    3.0707   -5.3386 N   0  0  0  0  0  0  0  0  0  0  0  0
   -0.0203    3.7862   -6.5506 C   0  0  0  0  0  0  0  0  0  0  0  0
    0.2660    5.1618   -6.5190 C   0  0  0  0  0  0  0  0  0  0  0  0
    0.5532    5.8498   -7.6986 C   0  0  0  0  0  0  0  0  0  0  0  0
    0.5707    5.1692   -8.9184 C   0  0  0  0  0  0  0  0  0  0  0  0
    0.8437    5.8399  -10.0635 F   0  0  0  0  0  0  0  0  0  0  0  0
    0.3014    3.7994   -8.9594 C   0  0  0  0  0  0  0  0  0  0  0  0
    0.0194    3.1048   -7.7800 C   0  0  0  0  0  0  0  0  0  0  0  0
   -0.2511    1.7774   -7.8407 F   0  0  0  0  0  0  0  0  0  0  0  0
    0.1257    0.2791   -3.2201 N   0  0  0  0  0  0  0  0  0  0  0  0
   -0.0324   -0.0081   -1.8218 C   0  0  0  0  0  0  0  0  0  0  0  0
   -0.4304    0.8865   -1.0271 O   0  0  0  0  0  0  0  0  0  0  0  0
    0.3117   -1.3091   -1.3251 N   0  0  0  0  0  0  0  0  0  0  0  0
    0.2635   -1.6641    0.0959 C   0  0  0  0  0  0  0  0  0  0  0  0
   -0.8648   -2.6822    0.3532 C   0  0  0  0  0  0  0  0  0  0  0  0
   -0.6613   -3.4619    1.6673 C   0  0  0  0  0  0  0  0  0  0  0  0
    0.2236   -2.7099    2.5807 N   0  0  0  0  0  0  0  0  0  0  0  0
    1.5983   -2.6204    2.0366 C   0  0  0  0  0  0  0  0  0  0  0  0
    1.6132   -2.2409    0.5389 C   0  0  0  0  0  0  0  0  0  0  0  0
    0.2115   -3.1724    3.9932 C   0  0  0  0  0  0  0  0  0  0  0  0
   -1.0278   -2.6425    4.7285 C   0  0  0  0  0  0  0  0  0  0  0  0
    0.4043   -4.6799    4.1506 C   0  0  0  0  0  0  0  0  0  0  0  0
   -0.6735   -5.5866    4.0660 C   0  0  0  0  0  0  0  0  0  0  0  0
   -0.4568   -6.9606    4.2068 C   0  0  0  0  0  0  0  0  0  0  0  0
    0.8286   -7.4496    4.4339 C   0  0  0  0  0  0  0  0  0  0  0  0
    1.9047   -6.5652    4.5192 C   0  0  0  0  0  0  0  0  0  0  0  0
    1.6943   -5.1900    4.3838 C   0  0  0  0  0  0  0  0  0  0  0  0
   -2.3272    4.9385   -5.3384 H   0  0  0  0  0  0  0  0  0  0  0  0
   -1.4230    5.5032   -3.8737 H   0  0  0  0  0  0  0  0  0  0  0  0
   -2.9078    4.4931   -3.6965 H   0  0  0  0  0  0  0  0  0  0  0  0
   -1.7231    2.4403   -2.4597 H   0  0  0  0  0  0  0  0  0  0  0  0
    0.2827    5.6993   -5.5812 H   0  0  0  0  0  0  0  0  0  0  0  0
    0.7716    6.9096   -7.6651 H   0  0  0  0  0  0  0  0  0  0  0  0
    0.3136    3.2736   -9.9055 H   0  0  0  0  0  0  0  0  0  0  0  0
    0.6077   -0.4328   -3.8136 H   0  0  0  0  0  0  0  0  0  0  0  0
    0.5754   -2.0503   -2.0129 H   0  0  0  0  0  0  0  0  0  0  0  0
    0.0666   -0.7582    0.7131 H   0  0  0  0  0  0  0  0  0  0  0  0
   -0.9233   -3.4096   -0.4858 H   0  0  0  0  0  0  0  0  0  0  0  0
   -1.8321   -2.1363    0.3883 H   0  0  0  0  0  0  0  0  0  0  0  0
   -1.6576   -3.6286    2.1217 H   0  0  0  0  0  0  0  0  0  0  0  0
   -0.2189   -4.4577    1.4402 H   0  0  0  0  0  0  0  0  0  0  0  0
    2.1361   -3.5850    2.1658 H   0  0  0  0  0  0  0  0  0  0  0  0
    2.1580   -1.8393    2.5978 H   0  0  0  0  0  0  0  0  0  0  0  0
    1.8389   -3.1472   -0.0669 H   0  0  0  0  0  0  0  0  0  0  0  0
    2.4198   -1.4993    0.3470 H   0  0  0  0  0  0  0  0  0  0  0  0
    1.0553   -2.6781    4.5264 H   0  0  0  0  0  0  0  0  0  0  0  0
   -1.0075   -2.9701    5.7892 H   0  0  0  0  0  0  0  0  0  0  0  0
   -1.9726   -2.9893    4.2682 H   0  0  0  0  0  0  0  0  0  0  0  0
   -1.0259   -1.5311    4.7088 H   0  0  0  0  0  0  0  0  0  0  0  0
   -1.6803   -5.2414    3.8866 H   0  0  0  0  0  0  0  0  0  0  0  0
   -1.2918   -7.6476    4.1372 H   0  0  0  0  0  0  0  0  0  0  0  0
    0.9945   -8.5142    4.5378 H   0  0  0  0  0  0  0  0  0  0  0  0
    2.9039   -6.9455    4.6913 H   0  0  0  0  0  0  0  0  0  0  0  0
    2.5433   -4.5235    4.4540 H   0  0  0  0  0  0  0  0  0  0  0  0
  1  2  1  0
  2  3  2  0
  3  4  1  0
  4  5  2  0
  5  6  1  0
  6  7  1  0
  7  8  2  0
  8  9  1  0
  9 10  2  0
 10 11  1  0
 10 12  1  0
 12 13  2  0
 13 14  1  0
  4 15  1  0
 15 16  1  0
 16 17  2  0
 16 18  1  0
 18 19  1  0
 19 20  1  0
 20 21  1  0
 21 22  1  0
 22 23  1  0
 23 24  1  0
 22 25  1  0
 25 26  1  0
 25 27  1  0
 27 28  2  0
 28 29  1  0
 29 30  2  0
 30 31  1  0
 31 32  2  0
  6  2  1  0
  7 13  1  0
 24 19  1  0
 27 32  1  0
  1 33  1  0
  1 34  1  0
  1 35  1  0
  3 36  1  0
  8 37  1  0
  9 38  1  0
 12 39  1  0
 15 40  1  0
 18 41  1  0
 19 42  1  0
 20 43  1  0
 20 44  1  0
 21 45  1  0
 21 46  1  0
 23 47  1  0
 23 48  1  0
 24 49  1  0
 24 50  1  0
 25 51  1  0
 26 52  1  0
 26 53  1  0
 26 54  1  0
 28 55  1  0
 29 56  1  0
 30 57  1  0
 31 58  1  0
 32 59  1  0
M  END
$$$$
