
     RDKit          3D

 41 43  0  0  0  0  0  0  0  0999 V2000
    1.6083   -7.2538    1.6506 C   0  0  0  0  0  0  0  0  0  0  0  0
    1.2621   -5.9732    2.1719 O   0  0  0  0  0  0  0  0  0  0  0  0
    1.3951   -4.7693    1.4646 C   0  0  0  0  0  0  0  0  0  0  0  0
    1.9004   -4.7173    0.1498 C   0  0  0  0  0  0  0  0  0  0  0  0
    1.9986   -3.4937   -0.5197 C   0  0  0  0  0  0  0  0  0  0  0  0
    1.6008   -2.3037    0.1107 C   0  0  0  0  0  0  0  0  0  0  0  0
    1.1076   -2.3568    1.4274 C   0  0  0  0  0  0  0  0  0  0  0  0
    1.0047   -3.5810    2.0949 C   0  0  0  0  0  0  0  0  0  0  0  0
    1.6862   -1.0179   -0.6110 C   0  0  0  0  0  0  0  0  0  0  0  0
    1.4011    0.1777   -0.0509 N   0  0  0  0  0  0  0  0  0  0  0  0
    1.5999    1.0438   -1.0624 C   0  0  0  0  0  0  0  0  0  0  0  0
    1.9879    0.3569   -2.1903 C   0  0  0  0  0  0  0  0  0  0  0  0
    2.0352   -0.9129   -1.8759 O   0  0  0  0  0  0  0  0  0  0  0  0
    1.3758    2.5227   -0.9624 C   0  0  0  0  0  0  0  0  0  0  0  0
   -0.1006    2.8493   -0.7172 C   0  0  0  0  0  0  0  0  0  0  0  0
   -0.9403    2.4162   -1.8347 N   0  0  0  0  0  0  0  0  0  0  0  0
   -2.3699    2.5327   -1.7787 C   0  0  0  0  0  0  0  0  0  0  0  0
   -2.9012    3.2211   -0.8650 O   0  0  0  0  0  0  0  0  0  0  0  0
   -3.2343    1.8669   -2.7824 C   0  0  0  0  0  0  0  0  0  0  0  0
   -2.7901    0.7458   -3.5081 C   0  0  0  0  0  0  0  0  0  0  0  0
   -3.6098    0.1430   -4.4114 N   0  0  0  0  0  0  0  0  0  0  0  0
   -4.8705    0.5903   -4.6449 C   0  0  0  0  0  0  0  0  0  0  0  0
   -5.3601    1.6923   -3.9430 C   0  0  0  0  0  0  0  0  0  0  0  0
   -6.6189    2.1406   -4.1666 F   0  0  0  0  0  0  0  0  0  0  0  0
   -4.5418    2.3288   -3.0078 C   0  0  0  0  0  0  0  0  0  0  0  0
    1.0189   -7.4666    0.7351 H   0  0  0  0  0  0  0  0  0  0  0  0
    1.3770   -8.0285    2.4081 H   0  0  0  0  0  0  0  0  0  0  0  0
    2.6935   -7.2924    1.4240 H   0  0  0  0  0  0  0  0  0  0  0  0
    2.2147   -5.6159   -0.3644 H   0  0  0  0  0  0  0  0  0  0  0  0
    2.3863   -3.4787   -1.5305 H   0  0  0  0  0  0  0  0  0  0  0  0
    0.7904   -1.4552    1.9362 H   0  0  0  0  0  0  0  0  0  0  0  0
    0.6099   -3.6081    3.1027 H   0  0  0  0  0  0  0  0  0  0  0  0
    2.2117    0.7683   -3.1672 H   0  0  0  0  0  0  0  0  0  0  0  0
    1.9790    2.9169   -0.1190 H   0  0  0  0  0  0  0  0  0  0  0  0
    1.7194    3.0266   -1.8901 H   0  0  0  0  0  0  0  0  0  0  0  0
   -0.4388    2.3511    0.2174 H   0  0  0  0  0  0  0  0  0  0  0  0
   -0.2096    3.9473   -0.5837 H   0  0  0  0  0  0  0  0  0  0  0  0
   -0.4909    2.0430   -2.7001 H   0  0  0  0  0  0  0  0  0  0  0  0
   -1.8071    0.3280   -3.3441 H   0  0  0  0  0  0  0  0  0  0  0  0
   -5.4937    0.0858   -5.3717 H   0  0  0  0  0  0  0  0  0  0  0  0
   -4.9264    3.1852   -2.4670 H   0  0  0  0  0  0  0  0  0  0  0  0
  1  2  1  0
  2  3  1  0
  3  4  2  0
  4  5  1  0
  5  6  2  0
  6  7  1  0
  7  8  2  0
  6  9  1  0
  9 10  2  0
 10 11  1  0
 11 12  2  0
 12 13  1  0
 11 14  1  0
 14 15  1  0
 15 16  1  0
 16 17  1  0
 17 18  2  0
 17 19  1  0
 19 20  2  0
 20 21  1  0
 21 22  2  0
 22 23  1  0
 23 24  1  0
 23 25  2  0
  3  8  1  0
 13  9  1  0
 25 19  1  0
  1 26  1  0
  1 27  1  0
  1 28  1  0
  4 29  1  0
  5 30  1  0
  7 31  1  0
  8 32  1  0
 12 33  1  0
 14 34  1  0
 14 35  1  0
 15 36  1  0
 15 37  1  0
 16 38  1  0
 20 39  1  0
 22 40  1  0
 25 41  1  0
M  END
$$$$
