
     RDKit          3D

 43 45  0  0  0  0  0  0  0  0999 V2000
    1.5641    3.4650   -0.6090 C   0  0  0  0  0  0  0  0  0  0  0  0
    2.5944    2.0650   -1.1465 S   0  0  0  0  0  0  0  0  0  0  0  0
    2.5646    1.2655    0.4676 C   0  0  0  0  0  0  0  0  0  0  0  0
    3.5674    1.5953    1.3893 C   0  0  0  0  0  0  0  0  0  0  0  0
    3.5586    1.0498    2.6807 C   0  0  0  0  0  0  0  0  0  0  0  0
    4.6112    1.4440    3.6741 C   0  0  0  0  0  0  0  0  0  0  0  0
    2.5142    0.1968    3.0605 C   0  0  0  0  0  0  0  0  0  0  0  0
    1.5136   -0.1417    2.1471 C   0  0  0  0  0  0  0  0  0  0  0  0
    1.5380    0.3686    0.8401 C   0  0  0  0  0  0  0  0  0  0  0  0
    0.4671   -0.0272   -0.0943 C   0  0  0  0  0  0  0  0  0  0  0  0
   -0.7359    0.1205    0.2540 O   0  0  0  0  0  0  0  0  0  0  0  0
    0.7878   -0.5901   -1.3758 N   0  0  0  0  0  0  0  0  0  0  0  0
   -0.2114   -0.9806   -2.3247 C   0  0  0  0  0  0  0  0  0  0  0  0
   -0.1947   -0.6289   -3.6175 N   0  0  0  0  0  0  0  0  0  0  0  0
   -1.2645   -1.1598   -4.1870 N   0  0  0  0  0  0  0  0  0  0  0  0
   -1.9662   -1.8608   -3.3051 N   0  0  0  0  0  0  0  0  0  0  0  0
   -1.3294   -1.7684   -2.1193 C   0  0  0  0  0  0  0  0  0  0  0  0
   -1.6992   -2.5220   -0.9013 C   0  0  0  0  0  0  0  0  0  0  0  0
   -0.7988   -2.7939   -0.0615 O   0  0  0  0  0  0  0  0  0  0  0  0
   -3.0499   -2.9565   -0.6470 N   0  0  0  0  0  0  0  0  0  0  0  0
   -4.1890   -2.6892   -1.5103 C   0  0  0  0  0  0  0  0  0  0  0  0
   -5.3910   -3.3247   -0.8231 C   0  0  0  0  0  0  0  0  0  0  0  0
   -4.9541   -3.6165    0.6091 C   0  0  0  0  0  0  0  0  0  0  0  0
   -3.4320   -3.6124    0.5924 C   0  0  0  0  0  0  0  0  0  0  0  0
    1.4192    4.1572   -1.4635 H   0  0  0  0  0  0  0  0  0  0  0  0
    0.5722    3.1001   -0.2697 H   0  0  0  0  0  0  0  0  0  0  0  0
    2.0649    4.0119    0.2170 H   0  0  0  0  0  0  0  0  0  0  0  0
    4.3478    2.2901    1.1027 H   0  0  0  0  0  0  0  0  0  0  0  0
    4.2842    2.3557    4.2161 H   0  0  0  0  0  0  0  0  0  0  0  0
    4.7832    0.6280    4.4079 H   0  0  0  0  0  0  0  0  0  0  0  0
    5.5744    1.6528    3.1615 H   0  0  0  0  0  0  0  0  0  0  0  0
    2.4754   -0.2093    4.0639 H   0  0  0  0  0  0  0  0  0  0  0  0
    0.7229   -0.8146    2.4573 H   0  0  0  0  0  0  0  0  0  0  0  0
    1.7827   -0.5995   -1.6920 H   0  0  0  0  0  0  0  0  0  0  0  0
    0.5124   -0.0349   -4.1042 H   0  0  0  0  0  0  0  0  0  0  0  0
   -4.3336   -1.5917   -1.6125 H   0  0  0  0  0  0  0  0  0  0  0  0
   -4.0394   -3.1544   -2.5077 H   0  0  0  0  0  0  0  0  0  0  0  0
   -6.2731   -2.6484   -0.8454 H   0  0  0  0  0  0  0  0  0  0  0  0
   -5.6523   -4.2789   -1.3317 H   0  0  0  0  0  0  0  0  0  0  0  0
   -5.3222   -2.8092    1.2800 H   0  0  0  0  0  0  0  0  0  0  0  0
   -5.3518   -4.5927    0.9623 H   0  0  0  0  0  0  0  0  0  0  0  0
   -3.0361   -4.6510    0.6005 H   0  0  0  0  0  0  0  0  0  0  0  0
   -3.0388   -3.0516    1.4686 H   0  0  0  0  0  0  0  0  0  0  0  0
  1  2  1  0
  2  3  1  0
  3  4  2  0
  4  5  1  0
  5  6  1  0
  5  7  2  0
  7  8  1  0
  8  9  2  0
  9 10  1  0
 10 11  2  0
 10 12  1  0
 12 13  1  0
 13 14  1  0
 14 15  1  0
 15 16  2  0
 16 17  1  0
 17 18  1  0
 18 19  2  0
 18 20  1  0
 20 21  1  0
 21 22  1  0
 22 23  1  0
 23 24  1  0
  3  9  1  0
 13 17  2  0
 24 20  1  0
  1 25  1  0
  1 26  1  0
  1 27  1  0
  4 28  1  0
  6 29  1  0
  6 30  1  0
  6 31  1  0
  7 32  1  0
  8 33  1  0
 12 34  1  0
 14 35  1  0
 21 36  1  0
 21 37  1  0
 22 38  1  0
 22 39  1  0
 23 40  1  0
 23 41  1  0
 24 42  1  0
 24 43  1  0
M  END
$$$$
