
     RDKit          3D

 47 50  0  0  0  0  0  0  0  0999 V2000
   -1.9281    3.1623   -0.0549 O   0  0  0  0  0  0  0  0  0  0  0  0
   -1.3143    2.1676    0.4201 C   0  0  0  0  0  0  0  0  0  0  0  0
   -0.5403    1.2958   -0.4923 C   0  0  0  0  0  0  0  0  0  0  0  0
    0.0502    1.8319   -1.6486 C   0  0  0  0  0  0  0  0  0  0  0  0
    0.7695    1.0112   -2.5220 C   0  0  0  0  0  0  0  0  0  0  0  0
    0.9107   -0.3590   -2.2554 C   0  0  0  0  0  0  0  0  0  0  0  0
    0.2924   -0.9019   -1.1186 C   0  0  0  0  0  0  0  0  0  0  0  0
   -0.4271   -0.0822   -0.2451 C   0  0  0  0  0  0  0  0  0  0  0  0
    1.6406   -1.2001   -3.1648 N   0  0  0  0  0  0  0  0  0  0  0  0
    1.5664   -1.1821   -4.5198 C   0  0  0  0  0  0  0  0  0  0  0  0
    2.3657   -2.1050   -5.1149 N   0  0  0  0  0  0  0  0  0  0  0  0
    2.9614   -2.7103   -4.0710 C   0  0  0  0  0  0  0  0  0  0  0  0
    3.9129   -3.7267   -4.1126 C   0  0  0  0  0  0  0  0  0  0  0  0
    4.4385   -4.1828   -2.8897 C   0  0  0  0  0  0  0  0  0  0  0  0
    4.0135   -3.6094   -1.6702 C   0  0  0  0  0  0  0  0  0  0  0  0
    3.0526   -2.5813   -1.6619 C   0  0  0  0  0  0  0  0  0  0  0  0
    2.5328   -2.1694   -2.8926 C   0  0  0  0  0  0  0  0  0  0  0  0
   -1.3780    1.9075    1.8351 N   0  0  0  0  0  0  0  0  0  0  0  0
   -0.1253    1.6611    2.5698 C   0  0  0  0  0  0  0  0  0  0  0  0
   -0.3614    1.5712    4.0811 C   0  0  0  0  0  0  0  0  0  0  0  0
   -1.5733    0.6812    4.3611 C   0  0  0  0  0  0  0  0  0  0  0  0
   -2.8850    1.2539    3.7322 C   0  0  0  0  0  0  0  0  0  0  0  0
   -3.6271    1.9168    4.7303 O   0  0  0  0  0  0  0  0  0  0  0  0
   -3.7669    0.0928    3.2181 C   0  0  0  0  0  0  0  0  0  0  0  0
   -3.1868   -0.5348    2.1028 O   0  0  0  0  0  0  0  0  0  0  0  0
   -2.6005    2.2593    2.5727 C   0  0  0  0  0  0  0  0  0  0  0  0
   -0.0346    2.8886   -1.8703 H   0  0  0  0  0  0  0  0  0  0  0  0
    1.2287    1.4462   -3.4006 H   0  0  0  0  0  0  0  0  0  0  0  0
    0.3435   -1.9649   -0.9221 H   0  0  0  0  0  0  0  0  0  0  0  0
   -0.9125   -0.5305    0.6116 H   0  0  0  0  0  0  0  0  0  0  0  0
    0.9254   -0.5111   -5.0772 H   0  0  0  0  0  0  0  0  0  0  0  0
    4.2439   -4.1463   -5.0538 H   0  0  0  0  0  0  0  0  0  0  0  0
    5.1811   -4.9700   -2.8841 H   0  0  0  0  0  0  0  0  0  0  0  0
    4.4361   -3.9572   -0.7366 H   0  0  0  0  0  0  0  0  0  0  0  0
    2.7496   -2.1228   -0.7309 H   0  0  0  0  0  0  0  0  0  0  0  0
    0.5980    2.4790    2.3615 H   0  0  0  0  0  0  0  0  0  0  0  0
    0.3287    0.7068    2.2321 H   0  0  0  0  0  0  0  0  0  0  0  0
   -0.5319    2.5865    4.5011 H   0  0  0  0  0  0  0  0  0  0  0  0
    0.5394    1.1441    4.5726 H   0  0  0  0  0  0  0  0  0  0  0  0
   -1.3440   -0.3333    3.9678 H   0  0  0  0  0  0  0  0  0  0  0  0
   -1.6940    0.5667    5.4607 H   0  0  0  0  0  0  0  0  0  0  0  0
   -3.0494    2.6204    5.1281 H   0  0  0  0  0  0  0  0  0  0  0  0
   -3.9559   -0.6357    4.0424 H   0  0  0  0  0  0  0  0  0  0  0  0
   -4.7589    0.4908    2.9131 H   0  0  0  0  0  0  0  0  0  0  0  0
   -2.8115   -1.4000    2.4117 H   0  0  0  0  0  0  0  0  0  0  0  0
   -2.4705    3.2863    2.9789 H   0  0  0  0  0  0  0  0  0  0  0  0
   -3.4746    2.3049    1.8850 H   0  0  0  0  0  0  0  0  0  0  0  0
  1  2  2  0
  2  3  1  0
  3  4  2  0
  4  5  1  0
  5  6  2  0
  6  7  1  0
  7  8  2  0
  6  9  1  0
  9 10  1  0
 10 11  2  0
 11 12  1  0
 12 13  2  0
 13 14  1  0
 14 15  2  0
 15 16  1  0
 16 17  2  0
  2 18  1  0
 18 19  1  0
 19 20  1  0
 20 21  1  0
 21 22  1  0
 22 23  1  0
 22 24  1  0
 24 25  1  0
 22 26  1  0
  3  8  1  0
 17  9  1  0
 12 17  1  0
 26 18  1  0
  4 27  1  0
  5 28  1  0
  7 29  1  0
  8 30  1  0
 10 31  1  0
 13 32  1  0
 14 33  1  0
 15 34  1  0
 16 35  1  0
 19 36  1  0
 19 37  1  0
 20 38  1  0
 20 39  1  0
 21 40  1  0
 21 41  1  0
 23 42  1  0
 24 43  1  0
 24 44  1  0
 25 45  1  0
 26 46  1  0
 26 47  1  0
M  END
$$$$
