
     RDKit          3D

 47 50  0  0  0  0  0  0  0  0999 V2000
   -3.8659    0.5614    2.6903 C   0  0  0  0  0  0  0  0  0  0  0  0
   -2.4901    1.1188    2.9088 C   0  0  0  0  0  0  0  0  0  0  0  0
   -2.0001    1.2969    4.2100 C   0  0  0  0  0  0  0  0  0  0  0  0
   -0.7094    1.7875    4.4183 C   0  0  0  0  0  0  0  0  0  0  0  0
   -0.2601    1.9718    5.6855 F   0  0  0  0  0  0  0  0  0  0  0  0
    0.1146    2.0861    3.3269 C   0  0  0  0  0  0  0  0  0  0  0  0
    1.3633    2.5798    3.5403 N   0  0  0  0  0  0  0  0  0  0  0  0
    2.2002    2.8919    2.5179 C   0  0  0  0  0  0  0  0  0  0  0  0
    3.4652    3.4000    2.8007 O   0  0  0  0  0  0  0  0  0  0  0  0
    1.7886    2.6992    1.1955 C   0  0  0  0  0  0  0  0  0  0  0  0
    0.5175    2.1746    0.9282 C   0  0  0  0  0  0  0  0  0  0  0  0
    0.1305    1.9571   -0.4799 C   0  0  0  0  0  0  0  0  0  0  0  0
    0.0276    2.9539   -1.2446 O   0  0  0  0  0  0  0  0  0  0  0  0
   -0.1066    0.6342   -0.9916 N   0  0  0  0  0  0  0  0  0  0  0  0
   -0.6758    0.3859   -2.3047 C   0  0  0  0  0  0  0  0  0  0  0  0
   -0.5056   -1.1078   -2.5510 C   0  0  0  0  0  0  0  0  0  0  0  0
   -0.2457   -1.7273   -1.1735 C   0  0  0  0  0  0  0  0  0  0  0  0
    0.3179   -0.5853   -0.3234 C   0  0  0  0  0  0  0  0  0  0  0  0
    0.6781   -2.8676   -1.2573 N   0  0  0  0  0  0  0  0  0  0  0  0
    0.3542   -4.1251   -1.8840 C   0  0  0  0  0  0  0  0  0  0  0  0
   -0.9574   -4.4415   -2.2932 C   0  0  0  0  0  0  0  0  0  0  0  0
   -1.2320   -5.6734   -2.8957 C   0  0  0  0  0  0  0  0  0  0  0  0
   -0.2082   -6.6023   -3.0929 C   0  0  0  0  0  0  0  0  0  0  0  0
    1.0931   -6.3027   -2.6852 C   0  0  0  0  0  0  0  0  0  0  0  0
    1.3731   -5.0728   -2.0824 C   0  0  0  0  0  0  0  0  0  0  0  0
   -0.3507    1.8781    2.0058 C   0  0  0  0  0  0  0  0  0  0  0  0
   -1.6630    1.4006    1.8111 C   0  0  0  0  0  0  0  0  0  0  0  0
   -3.8062   -0.5434    2.6014 H   0  0  0  0  0  0  0  0  0  0  0  0
   -4.5359    0.8212    3.5374 H   0  0  0  0  0  0  0  0  0  0  0  0
   -4.3121    0.9761    1.7613 H   0  0  0  0  0  0  0  0  0  0  0  0
   -2.6218    1.0610    5.0651 H   0  0  0  0  0  0  0  0  0  0  0  0
    4.1158    3.6428    2.0626 H   0  0  0  0  0  0  0  0  0  0  0  0
    2.4620    2.9409    0.3817 H   0  0  0  0  0  0  0  0  0  0  0  0
   -1.7523    0.6626   -2.2998 H   0  0  0  0  0  0  0  0  0  0  0  0
   -0.1378    0.9709   -3.0822 H   0  0  0  0  0  0  0  0  0  0  0  0
    0.3704   -1.2728   -3.2172 H   0  0  0  0  0  0  0  0  0  0  0  0
   -1.4120   -1.5369   -3.0289 H   0  0  0  0  0  0  0  0  0  0  0  0
   -1.2085   -2.0496   -0.7186 H   0  0  0  0  0  0  0  0  0  0  0  0
   -0.0932   -0.6401    0.7062 H   0  0  0  0  0  0  0  0  0  0  0  0
    1.4283   -0.5994   -0.2791 H   0  0  0  0  0  0  0  0  0  0  0  0
    1.6343   -2.7702   -0.8457 H   0  0  0  0  0  0  0  0  0  0  0  0
   -1.7757   -3.7524   -2.1450 H   0  0  0  0  0  0  0  0  0  0  0  0
   -2.2413   -5.9091   -3.2075 H   0  0  0  0  0  0  0  0  0  0  0  0
   -0.4238   -7.5550   -3.5590 H   0  0  0  0  0  0  0  0  0  0  0  0
    1.8861   -7.0238   -2.8361 H   0  0  0  0  0  0  0  0  0  0  0  0
    2.3880   -4.8560   -1.7734 H   0  0  0  0  0  0  0  0  0  0  0  0
   -2.0518    1.2446    0.8127 H   0  0  0  0  0  0  0  0  0  0  0  0
  1  2  1  0
  2  3  2  0
  3  4  1  0
  4  5  1  0
  4  6  2  0
  6  7  1  0
  7  8  2  0
  8  9  1  0
  8 10  1  0
 10 11  2  0
 11 12  1  0
 12 13  2  0
 12 14  1  0
 14 15  1  0
 15 16  1  0
 16 17  1  0
 17 18  1  0
 17 19  1  0
 19 20  1  0
 20 21  2  0
 21 22  1  0
 22 23  2  0
 23 24  1  0
 24 25  2  0
 11 26  1  0
 26 27  2  0
  2 27  1  0
  6 26  1  0
 18 14  1  0
 20 25  1  0
  1 28  1  0
  1 29  1  0
  1 30  1  0
  3 31  1  0
  9 32  1  0
 10 33  1  0
 15 34  1  0
 15 35  1  0
 16 36  1  0
 16 37  1  0
 17 38  1  0
 18 39  1  0
 18 40  1  0
 19 41  1  0
 21 42  1  0
 22 43  1  0
 23 44  1  0
 24 45  1  0
 25 46  1  0
 27 47  1  0
M  END
$$$$
