
     RDKit          3D

 51 53  0  0  0  0  0  0  0  0999 V2000
   -6.5342    2.5143    2.4960 C   0  0  0  0  0  0  0  0  0  0  0  0
   -5.1739    1.9047    2.4680 C   0  0  0  0  0  0  0  0  0  0  0  0
   -4.9578    0.8324    3.0944 O   0  0  0  0  0  0  0  0  0  0  0  0
   -4.1639    2.5051    1.7105 O   0  0  0  0  0  0  0  0  0  0  0  0
   -2.8423    1.9758    1.6358 C   0  0  0  0  0  0  0  0  0  0  0  0
   -1.9722    2.8524    0.7763 C   0  0  0  0  0  0  0  0  0  0  0  0
   -2.3560    4.0278    0.5255 O   0  0  0  0  0  0  0  0  0  0  0  0
   -0.6934    2.3911    0.2817 N   0  0  0  0  0  0  0  0  0  0  0  0
   -0.0339    3.1015   -0.8318 C   0  0  0  0  0  0  0  0  0  0  0  0
    1.4678    3.2481   -0.5617 C   0  0  0  0  0  0  0  0  0  0  0  0
    2.0198    1.9720   -0.1269 N   0  0  0  0  0  0  0  0  0  0  0  0
    3.3027    1.6488   -0.1662 N   0  0  0  0  0  0  0  0  0  0  0  0
    3.4288    0.4313    0.4039 C   0  0  0  0  0  0  0  0  0  0  0  0
    2.1868   -0.0082    0.8239 C   0  0  0  0  0  0  0  0  0  0  0  0
    1.3173    1.0048    0.4820 C   0  0  0  0  0  0  0  0  0  0  0  0
   -0.1613    1.0827    0.7097 C   0  0  0  0  0  0  0  0  0  0  0  0
    1.8301   -1.5258    1.6364 S   0  0  0  0  0  0  0  0  0  0  0  0
    2.3281   -1.3873    3.3373 C   0  0  0  0  0  0  0  0  0  0  0  0
    0.3561   -1.8137    1.5930 O   0  0  0  0  0  0  0  0  0  0  0  0
    2.6187   -2.7096    0.9599 N   0  0  0  0  0  0  0  0  0  0  0  0
    2.5814   -3.0488   -0.4343 C   0  0  0  0  0  0  0  0  0  0  0  0
    3.3670   -3.9398   -0.8520 O   0  0  0  0  0  0  0  0  0  0  0  0
    1.7314   -2.2953   -1.4295 C   0  0  0  0  0  0  0  0  0  0  0  0
    0.2231   -2.5337   -1.3154 C   0  0  0  0  0  0  0  0  0  0  0  0
    0.9866   -3.1018   -2.5049 C   0  0  0  0  0  0  0  0  0  0  0  0
    1.0623   -4.6354   -2.5378 C   0  0  0  0  0  0  0  0  0  0  0  0
    0.7414   -2.3835   -3.8345 C   0  0  0  0  0  0  0  0  0  0  0  0
   -6.9809    2.4021    3.5063 H   0  0  0  0  0  0  0  0  0  0  0  0
   -7.1826    2.0091    1.7484 H   0  0  0  0  0  0  0  0  0  0  0  0
   -6.4710    3.5967    2.2520 H   0  0  0  0  0  0  0  0  0  0  0  0
   -2.8861    0.9536    1.2016 H   0  0  0  0  0  0  0  0  0  0  0  0
   -2.4064    1.9249    2.6564 H   0  0  0  0  0  0  0  0  0  0  0  0
   -0.4616    4.1144   -0.9875 H   0  0  0  0  0  0  0  0  0  0  0  0
   -0.1852    2.5216   -1.7679 H   0  0  0  0  0  0  0  0  0  0  0  0
    1.9832    3.5879   -1.4858 H   0  0  0  0  0  0  0  0  0  0  0  0
    1.6296    4.0035    0.2369 H   0  0  0  0  0  0  0  0  0  0  0  0
    4.3659   -0.0983    0.5126 H   0  0  0  0  0  0  0  0  0  0  0  0
   -0.3413    0.9326    1.7945 H   0  0  0  0  0  0  0  0  0  0  0  0
   -0.6654    0.2775    0.1371 H   0  0  0  0  0  0  0  0  0  0  0  0
    2.0974   -2.3323    3.8703 H   0  0  0  0  0  0  0  0  0  0  0  0
    3.4191   -1.1915    3.3902 H   0  0  0  0  0  0  0  0  0  0  0  0
    1.7804   -0.5498    3.8170 H   0  0  0  0  0  0  0  0  0  0  0  0
    2.0265   -1.2616   -1.7077 H   0  0  0  0  0  0  0  0  0  0  0  0
   -0.3843   -1.6273   -1.5191 H   0  0  0  0  0  0  0  0  0  0  0  0
   -0.0836   -3.2736   -0.5457 H   0  0  0  0  0  0  0  0  0  0  0  0
    1.0886   -5.0844   -1.5227 H   0  0  0  0  0  0  0  0  0  0  0  0
    0.1701   -5.0358   -3.0633 H   0  0  0  0  0  0  0  0  0  0  0  0
    1.9694   -4.9505   -3.0940 H   0  0  0  0  0  0  0  0  0  0  0  0
   -0.2016   -2.7548   -4.2906 H   0  0  0  0  0  0  0  0  0  0  0  0
    1.5834   -2.5957   -4.5263 H   0  0  0  0  0  0  0  0  0  0  0  0
    0.6595   -1.2822   -3.7060 H   0  0  0  0  0  0  0  0  0  0  0  0
  1  2  1  0
  2  3  2  0
  2  4  1  0
  4  5  1  0
  5  6  1  0
  6  7  2  0
  6  8  1  0
  8  9  1  0
  9 10  1  0
 10 11  1  0
 11 12  1  0
 12 13  2  0
 13 14  1  0
 14 15  2  0
 15 16  1  0
 14 17  1  0
 17 18  1  0
 17 19  2  0
 17 20  2  0
 20 21  1  0
 21 22  2  0
 21 23  1  0
 23 24  1  0
 24 25  1  0
 25 26  1  0
 25 27  1  0
 16  8  1  0
 15 11  1  0
 25 23  1  0
  1 28  1  0
  1 29  1  0
  1 30  1  0
  5 31  1  0
  5 32  1  0
  9 33  1  0
  9 34  1  0
 10 35  1  0
 10 36  1  0
 13 37  1  0
 16 38  1  0
 16 39  1  0
 18 40  1  0
 18 41  1  0
 18 42  1  0
 23 43  1  0
 24 44  1  0
 24 45  1  0
 26 46  1  0
 26 47  1  0
 26 48  1  0
 27 49  1  0
 27 50  1  0
 27 51  1  0
M  END
$$$$
