
     RDKit          3D

 45 47  0  0  0  0  0  0  0  0999 V2000
   -0.5118   -1.6130   -2.7430 C   0  0  0  0  0  0  0  0  0  0  0  0
    0.5393   -1.0262   -1.7934 C   0  0  0  0  0  0  0  0  0  0  0  0
    0.0265    0.2193   -1.1213 C   0  0  0  0  0  0  0  0  0  0  0  0
   -1.0757    0.1829   -0.5083 O   0  0  0  0  0  0  0  0  0  0  0  0
    0.8095    1.4255   -1.1431 N   0  0  0  0  0  0  0  0  0  0  0  0
    0.4119    2.6886   -0.4969 C   0  0  0  0  0  0  0  0  0  0  0  0
    0.7942    2.7512    1.0039 C   0  0  0  0  0  0  0  0  0  0  0  0
    0.2570    1.5960    1.8111 C   0  0  0  0  0  0  0  0  0  0  0  0
   -1.0389    1.6439    2.3542 C   0  0  0  0  0  0  0  0  0  0  0  0
   -1.5357    0.5626    3.0896 C   0  0  0  0  0  0  0  0  0  0  0  0
   -0.7410   -0.5682    3.2991 C   0  0  0  0  0  0  0  0  0  0  0  0
    0.5524   -0.6187    2.7749 C   0  0  0  0  0  0  0  0  0  0  0  0
    1.0492    0.4540    2.0262 C   0  0  0  0  0  0  0  0  0  0  0  0
    0.9540    3.9011   -1.2722 C   0  0  0  0  0  0  0  0  0  0  0  0
   -0.4666    4.3429   -1.5905 C   0  0  0  0  0  0  0  0  0  0  0  0
   -1.0182    3.1414   -0.8389 C   0  0  0  0  0  0  0  0  0  0  0  0
    0.9303   -2.0068   -0.7785 N   0  0  0  0  0  0  0  0  0  0  0  0
    2.1817   -2.2107   -0.3225 C   0  0  0  0  0  0  0  0  0  0  0  0
    2.1358   -3.1612    0.6756 C   0  0  0  0  0  0  0  0  0  0  0  0
    0.7929   -3.4731    0.7911 C   0  0  0  0  0  0  0  0  0  0  0  0
    0.0770   -2.7632   -0.1026 N   0  0  0  0  0  0  0  0  0  0  0  0
    0.1977   -4.4777    1.7247 C   0  0  0  0  0  0  0  0  0  0  0  0
   -1.1124   -4.1346    2.0098 F   0  0  0  0  0  0  0  0  0  0  0  0
    0.9180   -4.5154    2.9049 F   0  0  0  0  0  0  0  0  0  0  0  0
    0.2239   -5.7279    1.1317 F   0  0  0  0  0  0  0  0  0  0  0  0
   -0.7616   -0.8756   -3.5361 H   0  0  0  0  0  0  0  0  0  0  0  0
   -1.4418   -1.8800   -2.1949 H   0  0  0  0  0  0  0  0  0  0  0  0
   -0.1096   -2.5275   -3.2291 H   0  0  0  0  0  0  0  0  0  0  0  0
    1.4278   -0.7703   -2.4141 H   0  0  0  0  0  0  0  0  0  0  0  0
    1.7599    1.3778   -1.5722 H   0  0  0  0  0  0  0  0  0  0  0  0
    0.4350    3.7061    1.4480 H   0  0  0  0  0  0  0  0  0  0  0  0
    1.9037    2.7699    1.0860 H   0  0  0  0  0  0  0  0  0  0  0  0
   -1.6630    2.5173    2.2147 H   0  0  0  0  0  0  0  0  0  0  0  0
   -2.5357    0.6034    3.5016 H   0  0  0  0  0  0  0  0  0  0  0  0
   -1.1250   -1.4032    3.8727 H   0  0  0  0  0  0  0  0  0  0  0  0
    1.1706   -1.4898    2.9485 H   0  0  0  0  0  0  0  0  0  0  0  0
    2.0494    0.3937    1.6139 H   0  0  0  0  0  0  0  0  0  0  0  0
    1.4888    4.6459   -0.6409 H   0  0  0  0  0  0  0  0  0  0  0  0
    1.5181    3.6373   -2.1961 H   0  0  0  0  0  0  0  0  0  0  0  0
   -0.7333    5.3072   -1.1054 H   0  0  0  0  0  0  0  0  0  0  0  0
   -0.6909    4.3065   -2.6796 H   0  0  0  0  0  0  0  0  0  0  0  0
   -1.6202    3.4500    0.0420 H   0  0  0  0  0  0  0  0  0  0  0  0
   -1.5644    2.4598   -1.5244 H   0  0  0  0  0  0  0  0  0  0  0  0
    3.0651   -1.6958   -0.6780 H   0  0  0  0  0  0  0  0  0  0  0  0
    2.9624   -3.5543    1.2534 H   0  0  0  0  0  0  0  0  0  0  0  0
  1  2  1  0
  2  3  1  0
  3  4  2  0
  3  5  1  0
  5  6  1  0
  6  7  1  0
  7  8  1  0
  8  9  2  0
  9 10  1  0
 10 11  2  0
 11 12  1  0
 12 13  2  0
  6 14  1  0
 14 15  1  0
 15 16  1  0
  2 17  1  0
 17 18  1  0
 18 19  2  0
 19 20  1  0
 20 21  2  0
 20 22  1  0
 22 23  1  0
 22 24  1  0
 22 25  1  0
 16  6  1  0
  8 13  1  0
 21 17  1  0
  1 26  1  0
  1 27  1  0
  1 28  1  0
  2 29  1  0
  5 30  1  0
  7 31  1  0
  7 32  1  0
  9 33  1  0
 10 34  1  0
 11 35  1  0
 12 36  1  0
 13 37  1  0
 14 38  1  0
 14 39  1  0
 15 40  1  0
 15 41  1  0
 16 42  1  0
 16 43  1  0
 18 44  1  0
 19 45  1  0
M  END
$$$$
