
     RDKit          3D

 52 56  0  0  0  0  0  0  0  0999 V2000
   -0.6155   -3.6601    1.4020 O   0  0  0  0  0  0  0  0  0  0  0  0
   -0.2551   -2.8210    0.5329 C   0  0  0  0  0  0  0  0  0  0  0  0
   -0.0625   -1.4419    0.8884 N   0  0  0  0  0  0  0  0  0  0  0  0
   -0.1540   -0.9600    2.2403 C   0  0  0  0  0  0  0  0  0  0  0  0
    0.0014   -1.7765    3.3148 N   0  0  0  0  0  0  0  0  0  0  0  0
   -0.0915   -0.9326    4.3545 C   0  0  0  0  0  0  0  0  0  0  0  0
    0.0074   -1.2505    5.7068 C   0  0  0  0  0  0  0  0  0  0  0  0
   -0.1035   -0.2025    6.6372 C   0  0  0  0  0  0  0  0  0  0  0  0
   -0.3052    1.1237    6.1966 C   0  0  0  0  0  0  0  0  0  0  0  0
   -0.3988    1.4125    4.8231 C   0  0  0  0  0  0  0  0  0  0  0  0
   -0.2908    0.3474    3.9207 C   0  0  0  0  0  0  0  0  0  0  0  0
   -0.3435    0.3519    2.5704 N   0  0  0  0  0  0  0  0  0  0  0  0
   -0.5821    1.4875    1.6564 C   0  0  0  0  0  0  0  0  0  0  0  0
    0.5475    2.5132    1.7071 C   0  0  0  0  0  0  0  0  0  0  0  0
   -0.1206    3.8525    1.4531 C   0  0  0  0  0  0  0  0  0  0  0  0
   -1.5321    3.7241    2.0080 C   0  0  0  0  0  0  0  0  0  0  0  0
   -1.8843    2.2391    1.9656 C   0  0  0  0  0  0  0  0  0  0  0  0
   -0.0515   -3.2653   -0.8557 C   0  0  0  0  0  0  0  0  0  0  0  0
   -0.2311   -4.5446   -1.3354 C   0  0  0  0  0  0  0  0  0  0  0  0
    0.0418   -4.5253   -2.6157 O   0  0  0  0  0  0  0  0  0  0  0  0
    0.3807   -3.2918   -2.9224 C   0  0  0  0  0  0  0  0  0  0  0  0
    0.3375   -2.4583   -1.8616 N   0  0  0  0  0  0  0  0  0  0  0  0
    0.7495   -2.8447   -4.3074 C   0  0  0  0  0  0  0  0  0  0  0  0
    1.8428   -3.7442   -4.9034 C   0  0  0  0  0  0  0  0  0  0  0  0
    2.0822   -3.3661   -6.3708 C   0  0  0  0  0  0  0  0  0  0  0  0
    0.8873   -3.4779   -7.1230 O   0  0  0  0  0  0  0  0  0  0  0  0
   -0.0659   -2.5372   -6.6620 C   0  0  0  0  0  0  0  0  0  0  0  0
   -0.4855   -2.8449   -5.2188 C   0  0  0  0  0  0  0  0  0  0  0  0
    0.2023   -0.7763    0.1309 H   0  0  0  0  0  0  0  0  0  0  0  0
    0.1692   -2.2702    6.0320 H   0  0  0  0  0  0  0  0  0  0  0  0
   -0.0307   -0.4129    7.6965 H   0  0  0  0  0  0  0  0  0  0  0  0
   -0.3837    1.9243    6.9204 H   0  0  0  0  0  0  0  0  0  0  0  0
   -0.5406    2.4299    4.4949 H   0  0  0  0  0  0  0  0  0  0  0  0
   -0.6636    1.1342    0.6081 H   0  0  0  0  0  0  0  0  0  0  0  0
    1.0408    2.5293    2.7020 H   0  0  0  0  0  0  0  0  0  0  0  0
    1.3184    2.2994    0.9353 H   0  0  0  0  0  0  0  0  0  0  0  0
   -0.1686    4.0410    0.3572 H   0  0  0  0  0  0  0  0  0  0  0  0
    0.4347    4.6817    1.9427 H   0  0  0  0  0  0  0  0  0  0  0  0
   -2.2502    4.3255    1.4081 H   0  0  0  0  0  0  0  0  0  0  0  0
   -1.5542    4.0880    3.0584 H   0  0  0  0  0  0  0  0  0  0  0  0
   -2.6277    2.0531    1.1589 H   0  0  0  0  0  0  0  0  0  0  0  0
   -2.3479    1.9212    2.9231 H   0  0  0  0  0  0  0  0  0  0  0  0
   -0.5428   -5.4185   -0.7781 H   0  0  0  0  0  0  0  0  0  0  0  0
    1.1451   -1.8050   -4.2485 H   0  0  0  0  0  0  0  0  0  0  0  0
    2.7876   -3.6231   -4.3294 H   0  0  0  0  0  0  0  0  0  0  0  0
    1.5348   -4.8125   -4.8543 H   0  0  0  0  0  0  0  0  0  0  0  0
    2.8321   -4.0647   -6.7979 H   0  0  0  0  0  0  0  0  0  0  0  0
    2.5118   -2.3409   -6.4484 H   0  0  0  0  0  0  0  0  0  0  0  0
    0.3233   -1.4966   -6.7455 H   0  0  0  0  0  0  0  0  0  0  0  0
   -0.9637   -2.6006   -7.3120 H   0  0  0  0  0  0  0  0  0  0  0  0
   -1.2124   -2.0781   -4.8721 H   0  0  0  0  0  0  0  0  0  0  0  0
   -0.9833   -3.8404   -5.1921 H   0  0  0  0  0  0  0  0  0  0  0  0
  1  2  2  0
  2  3  1  0
  3  4  1  0
  4  5  2  0
  5  6  1  0
  6  7  2  0
  7  8  1  0
  8  9  2  0
  9 10  1  0
 10 11  2  0
 11 12  1  0
 12 13  1  0
 13 14  1  0
 14 15  1  0
 15 16  1  0
 16 17  1  0
  2 18  1  0
 18 19  2  0
 19 20  1  0
 20 21  1  0
 21 22  2  0
 21 23  1  0
 23 24  1  0
 24 25  1  0
 25 26  1  0
 26 27  1  0
 27 28  1  0
 12  4  1  0
  6 11  1  0
 17 13  1  0
 22 18  1  0
 28 23  1  0
  3 29  1  0
  7 30  1  0
  8 31  1  0
  9 32  1  0
 10 33  1  0
 13 34  1  0
 14 35  1  0
 14 36  1  0
 15 37  1  0
 15 38  1  0
 16 39  1  0
 16 40  1  0
 17 41  1  0
 17 42  1  0
 19 43  1  0
 23 44  1  0
 24 45  1  0
 24 46  1  0
 25 47  1  0
 25 48  1  0
 27 49  1  0
 27 50  1  0
 28 51  1  0
 28 52  1  0
M  END
$$$$
