
     RDKit          3D

 30 32  0  0  0  0  0  0  0  0999 V2000
   -2.3247    0.6603   -1.5477 N   0  0  0  0  0  0  0  0  0  0  0  0
   -1.5389    0.4765   -2.3770 C   0  0  0  0  0  0  0  0  0  0  0  0
   -0.5595    0.2469   -3.4065 C   0  0  0  0  0  0  0  0  0  0  0  0
   -0.8545   -0.4352   -4.5938 C   0  0  0  0  0  0  0  0  0  0  0  0
    0.2353   -0.5563   -5.4477 C   0  0  0  0  0  0  0  0  0  0  0  0
    1.5630    0.1829   -4.7243 S   0  0  0  0  0  0  0  0  0  0  0  0
    0.7648    0.6640   -3.3267 C   0  0  0  0  0  0  0  0  0  0  0  0
    1.5168    1.5173   -1.9859 S   0  0  0  0  0  0  0  0  0  0  0  0
    1.0265    2.9375   -1.9816 O   0  0  0  0  0  0  0  0  0  0  0  0
    3.0116    1.5136   -2.1408 O   0  0  0  0  0  0  0  0  0  0  0  0
    1.0933    0.7558   -0.4863 N   0  0  0  0  0  0  0  0  0  0  0  0
    1.0665   -0.6713   -0.3176 C   0  0  0  0  0  0  0  0  0  0  0  0
    1.8842   -1.5246   -1.0918 C   0  0  0  0  0  0  0  0  0  0  0  0
    1.8378   -2.9200   -0.9126 C   0  0  0  0  0  0  0  0  0  0  0  0
    0.9802   -3.4862    0.0415 C   0  0  0  0  0  0  0  0  0  0  0  0
    0.1829   -2.6372    0.8063 C   0  0  0  0  0  0  0  0  0  0  0  0
   -0.8146   -3.0150    1.8533 C   0  0  0  0  0  0  0  0  0  0  0  0
   -1.3223   -1.6553    2.2233 C   0  0  0  0  0  0  0  0  0  0  0  0
   -2.2161   -1.4454    3.0846 O   0  0  0  0  0  0  0  0  0  0  0  0
   -0.6938   -0.6089    1.4920 N   0  0  0  0  0  0  0  0  0  0  0  0
    0.2259   -1.2666    0.6353 C   0  0  0  0  0  0  0  0  0  0  0  0
   -1.8333   -0.8338   -4.8278 H   0  0  0  0  0  0  0  0  0  0  0  0
    0.2292   -1.0459   -6.4120 H   0  0  0  0  0  0  0  0  0  0  0  0
    0.7259    1.3737    0.2697 H   0  0  0  0  0  0  0  0  0  0  0  0
    2.5661   -1.1207   -1.8268 H   0  0  0  0  0  0  0  0  0  0  0  0
    2.4689   -3.5607   -1.5146 H   0  0  0  0  0  0  0  0  0  0  0  0
    0.9373   -4.5589    0.1782 H   0  0  0  0  0  0  0  0  0  0  0  0
   -1.6260   -3.6401    1.4245 H   0  0  0  0  0  0  0  0  0  0  0  0
   -0.3197   -3.5053    2.7179 H   0  0  0  0  0  0  0  0  0  0  0  0
   -0.9142    0.4097    1.5466 H   0  0  0  0  0  0  0  0  0  0  0  0
  1  2  3  0
  2  3  1  0
  3  4  1  0
  4  5  2  0
  5  6  1  0
  6  7  1  0
  7  8  1  0
  8  9  2  0
  8 10  2  0
  8 11  1  0
 11 12  1  0
 12 13  2  0
 13 14  1  0
 14 15  2  0
 15 16  1  0
 16 17  1  0
 17 18  1  0
 18 19  2  0
 18 20  1  0
 20 21  1  0
  3  7  2  0
 12 21  1  0
 21 16  2  0
  4 22  1  0
  5 23  1  0
 11 24  1  0
 13 25  1  0
 14 26  1  0
 15 27  1  0
 17 28  1  0
 17 29  1  0
 20 30  1  0
M  END
$$$$
