
     RDKit          3D

 36 39  0  0  0  0  0  0  0  0999 V2000
    0.1812   -4.5557   -1.3012 O   0  0  0  0  0  0  0  0  0  0  0  0
   -0.3693   -3.4827   -1.6716 C   0  0  0  0  0  0  0  0  0  0  0  0
   -1.7435   -3.4788   -1.9248 C   0  0  0  0  0  0  0  0  0  0  0  0
   -2.3690   -2.2993   -2.3200 C   0  0  0  0  0  0  0  0  0  0  0  0
   -1.6179   -1.1300   -2.4792 C   0  0  0  0  0  0  0  0  0  0  0  0
   -0.2373   -1.1784   -2.2419 C   0  0  0  0  0  0  0  0  0  0  0  0
    0.3666   -2.3329   -1.8203 N   0  0  0  0  0  0  0  0  0  0  0  0
    1.8023   -2.3142   -1.4887 C   0  0  0  0  0  0  0  0  0  0  0  0
    2.0001   -2.4028    0.0005 C   0  0  0  0  0  0  0  0  0  0  0  0
    2.5209   -3.4871    0.6083 N   0  0  0  0  0  0  0  0  0  0  0  0
    2.3772   -3.1841    1.9173 C   0  0  0  0  0  0  0  0  0  0  0  0
    1.7858   -1.9888    2.1094 N   0  0  0  0  0  0  0  0  0  0  0  0
    1.5621   -1.5016    0.9032 N   0  0  0  0  0  0  0  0  0  0  0  0
    0.9025   -0.2541    0.6586 C   0  0  0  0  0  0  0  0  0  0  0  0
    1.5393    0.7551   -0.0798 C   0  0  0  0  0  0  0  0  0  0  0  0
    0.8747    1.9569   -0.3443 C   0  0  0  0  0  0  0  0  0  0  0  0
   -0.4236    2.1589    0.1333 C   0  0  0  0  0  0  0  0  0  0  0  0
   -1.0545    1.1640    0.8859 C   0  0  0  0  0  0  0  0  0  0  0  0
   -0.3907   -0.0369    1.1557 C   0  0  0  0  0  0  0  0  0  0  0  0
   -2.2626    0.1402   -2.8648 C   0  0  0  0  0  0  0  0  0  0  0  0
   -3.5786    0.2851   -3.1118 N   0  0  0  0  0  0  0  0  0  0  0  0
   -3.7615    1.5616   -3.4109 N   0  0  0  0  0  0  0  0  0  0  0  0
   -2.5531    2.1502   -3.3359 C   0  0  0  0  0  0  0  0  0  0  0  0
   -1.6301    1.2815   -3.0015 O   0  0  0  0  0  0  0  0  0  0  0  0
   -2.3270   -4.3835   -1.8044 H   0  0  0  0  0  0  0  0  0  0  0  0
   -3.4372   -2.3016   -2.4975 H   0  0  0  0  0  0  0  0  0  0  0  0
    0.3495   -0.2783   -2.3777 H   0  0  0  0  0  0  0  0  0  0  0  0
    2.2971   -1.3955   -1.8700 H   0  0  0  0  0  0  0  0  0  0  0  0
    2.3119   -3.1686   -1.9855 H   0  0  0  0  0  0  0  0  0  0  0  0
    2.6876   -3.8365    2.7221 H   0  0  0  0  0  0  0  0  0  0  0  0
    2.5448    0.6075   -0.4521 H   0  0  0  0  0  0  0  0  0  0  0  0
    1.3642    2.7296   -0.9227 H   0  0  0  0  0  0  0  0  0  0  0  0
   -0.9397    3.0864   -0.0782 H   0  0  0  0  0  0  0  0  0  0  0  0
   -2.0590    1.3217    1.2565 H   0  0  0  0  0  0  0  0  0  0  0  0
   -0.8900   -0.8076    1.7293 H   0  0  0  0  0  0  0  0  0  0  0  0
   -2.3709    3.1992   -3.5261 H   0  0  0  0  0  0  0  0  0  0  0  0
  1  2  2  0
  2  3  1  0
  3  4  2  0
  4  5  1  0
  5  6  2  0
  6  7  1  0
  7  8  1  0
  8  9  1  0
  9 10  2  0
 10 11  1  0
 11 12  2  0
 12 13  1  0
 13 14  1  0
 14 15  2  0
 15 16  1  0
 16 17  2  0
 17 18  1  0
 18 19  2  0
  5 20  1  0
 20 21  2  0
 21 22  1  0
 22 23  2  0
 23 24  1  0
  7  2  1  0
 13  9  1  0
 14 19  1  0
 24 20  1  0
  3 25  1  0
  4 26  1  0
  6 27  1  0
  8 28  1  0
  8 29  1  0
 11 30  1  0
 15 31  1  0
 16 32  1  0
 17 33  1  0
 18 34  1  0
 19 35  1  0
 23 36  1  0
M  END
$$$$
