
     RDKit          3D

 46 48  0  0  0  0  0  0  0  0999 V2000
   -0.9144    5.7659    1.8818 C   0  0  0  0  0  0  0  0  0  0  0  0
   -1.5891    4.5725    2.2679 O   0  0  0  0  0  0  0  0  0  0  0  0
   -0.9583    3.3359    2.4698 C   0  0  0  0  0  0  0  0  0  0  0  0
   -1.7474    2.2414    2.8420 C   0  0  0  0  0  0  0  0  0  0  0  0
   -1.1690    0.9867    3.0455 C   0  0  0  0  0  0  0  0  0  0  0  0
    0.2064    0.8140    2.8802 C   0  0  0  0  0  0  0  0  0  0  0  0
    1.0170    1.9007    2.5146 C   0  0  0  0  0  0  0  0  0  0  0  0
    0.4303    3.1599    2.3060 C   0  0  0  0  0  0  0  0  0  0  0  0
    2.4912    1.6997    2.2652 C   0  0  0  0  0  0  0  0  0  0  0  0
    2.8032    1.5641    0.7686 C   0  0  0  0  0  0  0  0  0  0  0  0
    2.1362    0.3573    0.1744 C   0  0  0  0  0  0  0  0  0  0  0  0
    2.7055   -0.7647    0.2587 O   0  0  0  0  0  0  0  0  0  0  0  0
    0.8197    0.4735   -0.3903 N   0  0  0  0  0  0  0  0  0  0  0  0
    0.0580   -0.6399   -0.8835 C   0  0  0  0  0  0  0  0  0  0  0  0
    0.6555   -1.6540   -1.6508 C   0  0  0  0  0  0  0  0  0  0  0  0
   -0.1118   -2.7171   -2.1364 C   0  0  0  0  0  0  0  0  0  0  0  0
   -1.4886   -2.7848   -1.8598 C   0  0  0  0  0  0  0  0  0  0  0  0
   -2.0895   -1.7491   -1.1308 C   0  0  0  0  0  0  0  0  0  0  0  0
   -1.3227   -0.6860   -0.6464 C   0  0  0  0  0  0  0  0  0  0  0  0
   -2.3037   -3.8545   -2.3684 N   0  0  0  0  0  0  0  0  0  0  0  0
   -1.8632   -5.2140   -2.4966 C   0  0  0  0  0  0  0  0  0  0  0  0
   -0.7287   -5.6418   -1.8766 N   0  0  0  0  0  0  0  0  0  0  0  0
   -0.3229   -6.9346   -1.9705 C   0  0  0  0  0  0  0  0  0  0  0  0
   -1.0791   -7.8488   -2.7017 C   0  0  0  0  0  0  0  0  0  0  0  0
   -2.2445   -7.4004   -3.3210 C   0  0  0  0  0  0  0  0  0  0  0  0
   -2.6161   -6.0989   -3.2046 N   0  0  0  0  0  0  0  0  0  0  0  0
   -1.6545    6.5866    1.7876 H   0  0  0  0  0  0  0  0  0  0  0  0
   -0.1668    6.0475    2.6527 H   0  0  0  0  0  0  0  0  0  0  0  0
   -0.4153    5.6228    0.9003 H   0  0  0  0  0  0  0  0  0  0  0  0
   -2.8157    2.3635    2.9687 H   0  0  0  0  0  0  0  0  0  0  0  0
   -1.7890    0.1444    3.3243 H   0  0  0  0  0  0  0  0  0  0  0  0
    0.6376   -0.1691    3.0234 H   0  0  0  0  0  0  0  0  0  0  0  0
    1.0582    3.9890    2.0071 H   0  0  0  0  0  0  0  0  0  0  0  0
    2.8593    0.7994    2.8053 H   0  0  0  0  0  0  0  0  0  0  0  0
    3.0525    2.5685    2.6722 H   0  0  0  0  0  0  0  0  0  0  0  0
    2.4785    2.4799    0.2287 H   0  0  0  0  0  0  0  0  0  0  0  0
    3.9032    1.4747    0.6366 H   0  0  0  0  0  0  0  0  0  0  0  0
    0.3263    1.3889   -0.2851 H   0  0  0  0  0  0  0  0  0  0  0  0
    1.7061   -1.6085   -1.9045 H   0  0  0  0  0  0  0  0  0  0  0  0
    0.3656   -3.4654   -2.7547 H   0  0  0  0  0  0  0  0  0  0  0  0
   -3.1534   -1.7708   -0.9309 H   0  0  0  0  0  0  0  0  0  0  0  0
   -1.8028    0.0998   -0.0766 H   0  0  0  0  0  0  0  0  0  0  0  0
   -3.3042   -3.6490   -2.5909 H   0  0  0  0  0  0  0  0  0  0  0  0
    0.5844   -7.2520   -1.4742 H   0  0  0  0  0  0  0  0  0  0  0  0
   -0.7703   -8.8827   -2.7840 H   0  0  0  0  0  0  0  0  0  0  0  0
   -2.8549   -8.0863   -3.8929 H   0  0  0  0  0  0  0  0  0  0  0  0
  1  2  1  0
  2  3  1  0
  3  4  2  0
  4  5  1  0
  5  6  2  0
  6  7  1  0
  7  8  2  0
  7  9  1  0
  9 10  1  0
 10 11  1  0
 11 12  2  0
 11 13  1  0
 13 14  1  0
 14 15  2  0
 15 16  1  0
 16 17  2  0
 17 18  1  0
 18 19  2  0
 17 20  1  0
 20 21  1  0
 21 22  2  0
 22 23  1  0
 23 24  2  0
 24 25  1  0
 25 26  2  0
  3  8  1  0
 14 19  1  0
 21 26  1  0
  1 27  1  0
  1 28  1  0
  1 29  1  0
  4 30  1  0
  5 31  1  0
  6 32  1  0
  8 33  1  0
  9 34  1  0
  9 35  1  0
 10 36  1  0
 10 37  1  0
 13 38  1  0
 15 39  1  0
 16 40  1  0
 18 41  1  0
 19 42  1  0
 20 43  1  0
 23 44  1  0
 24 45  1  0
 25 46  1  0
M  END
$$$$
