
     RDKit          3D

 44 46  0  0  0  0  0  0  0  0999 V2000
   -4.0350    5.2942    0.7072 C   0  0  0  0  0  0  0  0  0  0  0  0
   -4.0576    4.4984   -0.4719 O   0  0  0  0  0  0  0  0  0  0  0  0
   -3.0238    3.6205   -0.8100 C   0  0  0  0  0  0  0  0  0  0  0  0
   -3.1135    2.8715   -1.9829 C   0  0  0  0  0  0  0  0  0  0  0  0
   -2.0698    2.0049   -2.3011 C   0  0  0  0  0  0  0  0  0  0  0  0
   -0.9974    1.9036   -1.4747 N   0  0  0  0  0  0  0  0  0  0  0  0
   -0.9187    2.6334   -0.3270 C   0  0  0  0  0  0  0  0  0  0  0  0
   -1.9310    3.4872   -0.0096 N   0  0  0  0  0  0  0  0  0  0  0  0
    0.2307    2.5155    0.5370 N   0  0  0  0  0  0  0  0  0  0  0  0
    0.4806    3.5393    1.5546 C   0  0  0  0  0  0  0  0  0  0  0  0
    1.2533    1.5373    0.2691 C   0  0  0  0  0  0  0  0  0  0  0  0
    2.4594    1.9045    0.2233 O   0  0  0  0  0  0  0  0  0  0  0  0
    0.9187    0.1058    0.0707 C   0  0  0  0  0  0  0  0  0  0  0  0
    1.8112   -0.7447   -0.6040 C   0  0  0  0  0  0  0  0  0  0  0  0
    1.4995   -2.0943   -0.7929 C   0  0  0  0  0  0  0  0  0  0  0  0
    0.2859   -2.6165   -0.3119 C   0  0  0  0  0  0  0  0  0  0  0  0
   -0.5870   -1.7788    0.3897 C   0  0  0  0  0  0  0  0  0  0  0  0
   -0.2780   -0.4291    0.5788 C   0  0  0  0  0  0  0  0  0  0  0  0
   -0.0627   -3.9656   -0.4713 O   0  0  0  0  0  0  0  0  0  0  0  0
    0.2983   -4.7709   -1.5593 C   0  0  0  0  0  0  0  0  0  0  0  0
    0.1815   -6.1581   -1.4490 C   0  0  0  0  0  0  0  0  0  0  0  0
    0.5202   -6.9663   -2.5356 C   0  0  0  0  0  0  0  0  0  0  0  0
    0.9871   -6.3881   -3.7266 C   0  0  0  0  0  0  0  0  0  0  0  0
    1.0555   -4.9876   -3.8058 C   0  0  0  0  0  0  0  0  0  0  0  0
    0.7174   -4.2230   -2.7338 N   0  0  0  0  0  0  0  0  0  0  0  0
    1.3083   -7.2442   -4.9249 C   0  0  0  0  0  0  0  0  0  0  0  0
    2.2801   -6.6440   -5.7067 F   0  0  0  0  0  0  0  0  0  0  0  0
    1.7770   -8.4844   -4.5272 F   0  0  0  0  0  0  0  0  0  0  0  0
    0.1641   -7.4162   -5.6813 F   0  0  0  0  0  0  0  0  0  0  0  0
   -3.9871    4.6423    1.6052 H   0  0  0  0  0  0  0  0  0  0  0  0
   -4.9610    5.9032    0.7540 H   0  0  0  0  0  0  0  0  0  0  0  0
   -3.1572    5.9745    0.6902 H   0  0  0  0  0  0  0  0  0  0  0  0
   -3.9732    2.9608   -2.6345 H   0  0  0  0  0  0  0  0  0  0  0  0
   -2.1108    1.4126   -3.2053 H   0  0  0  0  0  0  0  0  0  0  0  0
    1.2547    3.1986    2.2756 H   0  0  0  0  0  0  0  0  0  0  0  0
    0.8266    4.4746    1.0664 H   0  0  0  0  0  0  0  0  0  0  0  0
   -0.4458    3.7446    2.1316 H   0  0  0  0  0  0  0  0  0  0  0  0
    2.7497   -0.3654   -0.9890 H   0  0  0  0  0  0  0  0  0  0  0  0
    2.2193   -2.7312   -1.2888 H   0  0  0  0  0  0  0  0  0  0  0  0
   -1.5135   -2.1752    0.7856 H   0  0  0  0  0  0  0  0  0  0  0  0
   -0.9712    0.1922    1.1316 H   0  0  0  0  0  0  0  0  0  0  0  0
   -0.1730   -6.6058   -0.5292 H   0  0  0  0  0  0  0  0  0  0  0  0
    0.4143   -8.0402   -2.4465 H   0  0  0  0  0  0  0  0  0  0  0  0
    1.3725   -4.5009   -4.7189 H   0  0  0  0  0  0  0  0  0  0  0  0
  1  2  1  0
  2  3  1  0
  3  4  2  0
  4  5  1  0
  5  6  2  0
  6  7  1  0
  7  8  2  0
  7  9  1  0
  9 10  1  0
  9 11  1  0
 11 12  2  0
 11 13  1  0
 13 14  2  0
 14 15  1  0
 15 16  2  0
 16 17  1  0
 17 18  2  0
 16 19  1  0
 19 20  1  0
 20 21  2  0
 21 22  1  0
 22 23  2  0
 23 24  1  0
 24 25  2  0
 23 26  1  0
 26 27  1  0
 26 28  1  0
 26 29  1  0
  3  8  1  0
 13 18  1  0
 20 25  1  0
  1 30  1  0
  1 31  1  0
  1 32  1  0
  4 33  1  0
  5 34  1  0
 10 35  1  0
 10 36  1  0
 10 37  1  0
 14 38  1  0
 15 39  1  0
 17 40  1  0
 18 41  1  0
 21 42  1  0
 22 43  1  0
 24 44  1  0
M  END
$$$$
