
     RDKit          3D

 44 47  0  0  0  0  0  0  0  0999 V2000
   -4.1355   -2.1827   -0.1685 C   0  0  0  0  0  0  0  0  0  0  0  0
   -2.6568   -1.9342   -0.5084 C   0  0  0  0  0  0  0  0  0  0  0  0
   -1.8036   -1.6860    0.7504 C   0  0  0  0  0  0  0  0  0  0  0  0
   -2.0713   -0.3106    1.3785 C   0  0  0  0  0  0  0  0  0  0  0  0
   -1.8540    0.8464    0.3705 C   0  0  0  0  0  0  0  0  0  0  0  0
   -2.2625    2.1945    1.0052 C   0  0  0  0  0  0  0  0  0  0  0  0
   -1.3195    3.2330    0.4155 C   0  0  0  0  0  0  0  0  0  0  0  0
   -0.1586    2.4884   -0.0385 N   0  0  0  0  0  0  0  0  0  0  0  0
   -0.3591    1.0489    0.0289 C   0  0  0  0  0  0  0  0  0  0  0  0
    1.0289    3.1367   -0.5344 C   0  0  0  0  0  0  0  0  0  0  0  0
    1.0245    4.3869   -0.6995 O   0  0  0  0  0  0  0  0  0  0  0  0
    2.2610    2.3854   -0.8508 C   0  0  0  0  0  0  0  0  0  0  0  0
    3.4114    2.9242   -1.4006 C   0  0  0  0  0  0  0  0  0  0  0  0
    4.3012    1.8776   -1.5199 C   0  0  0  0  0  0  0  0  0  0  0  0
    3.6379    0.7682   -1.0341 C   0  0  0  0  0  0  0  0  0  0  0  0
    2.4302    1.0996   -0.6428 O   0  0  0  0  0  0  0  0  0  0  0  0
    4.1763   -0.5923   -0.9548 C   0  0  0  0  0  0  0  0  0  0  0  0
    3.4906   -1.6479   -0.4750 N   0  0  0  0  0  0  0  0  0  0  0  0
    4.3264   -2.6682   -0.5805 N   0  0  0  0  0  0  0  0  0  0  0  0
    5.4650   -2.2438   -1.1012 N   0  0  0  0  0  0  0  0  0  0  0  0
    5.4131   -0.9471   -1.3511 N   0  0  0  0  0  0  0  0  0  0  0  0
   -2.7007    0.6007   -0.9127 C   0  0  0  0  0  0  0  0  0  0  0  0
   -2.4821   -0.7934   -1.5294 C   0  0  0  0  0  0  0  0  0  0  0  0
   -4.6092   -1.2898    0.2873 H   0  0  0  0  0  0  0  0  0  0  0  0
   -4.6969   -2.4452   -1.0903 H   0  0  0  0  0  0  0  0  0  0  0  0
   -4.2257   -3.0328    0.5406 H   0  0  0  0  0  0  0  0  0  0  0  0
   -2.2800   -2.8668   -0.9845 H   0  0  0  0  0  0  0  0  0  0  0  0
   -0.7275   -1.7595    0.4795 H   0  0  0  0  0  0  0  0  0  0  0  0
   -2.0025   -2.4783    1.5044 H   0  0  0  0  0  0  0  0  0  0  0  0
   -3.1126   -0.2792    1.7656 H   0  0  0  0  0  0  0  0  0  0  0  0
   -1.4028   -0.1843    2.2584 H   0  0  0  0  0  0  0  0  0  0  0  0
   -3.3251    2.4637    0.8178 H   0  0  0  0  0  0  0  0  0  0  0  0
   -2.1064    2.1689    2.1072 H   0  0  0  0  0  0  0  0  0  0  0  0
   -1.0279    3.9797    1.1860 H   0  0  0  0  0  0  0  0  0  0  0  0
   -1.7952    3.7453   -0.4487 H   0  0  0  0  0  0  0  0  0  0  0  0
    0.2978    0.6353    0.8248 H   0  0  0  0  0  0  0  0  0  0  0  0
   -0.0843    0.5834   -0.9392 H   0  0  0  0  0  0  0  0  0  0  0  0
    3.5836    3.9548   -1.6822 H   0  0  0  0  0  0  0  0  0  0  0  0
    5.3085    1.9217   -1.9129 H   0  0  0  0  0  0  0  0  0  0  0  0
    6.2928   -2.8507   -1.2896 H   0  0  0  0  0  0  0  0  0  0  0  0
   -3.7812    0.7103   -0.6756 H   0  0  0  0  0  0  0  0  0  0  0  0
   -2.4620    1.3715   -1.6784 H   0  0  0  0  0  0  0  0  0  0  0  0
   -1.4643   -0.8559   -1.9682 H   0  0  0  0  0  0  0  0  0  0  0  0
   -3.1927   -0.9317   -2.3733 H   0  0  0  0  0  0  0  0  0  0  0  0
  1  2  1  0
  2  3  1  0
  3  4  1  0
  4  5  1  0
  5  6  1  0
  6  7  1  0
  7  8  1  0
  8  9  1  0
  8 10  1  0
 10 11  2  0
 10 12  1  0
 12 13  2  0
 13 14  1  0
 14 15  2  0
 15 16  1  0
 15 17  1  0
 17 18  1  0
 18 19  2  0
 19 20  1  0
 20 21  1  0
  5 22  1  0
 22 23  1  0
 23  2  1  0
  9  5  1  0
 16 12  1  0
 17 21  2  0
  1 24  1  0
  1 25  1  0
  1 26  1  0
  2 27  1  0
  3 28  1  0
  3 29  1  0
  4 30  1  0
  4 31  1  0
  6 32  1  0
  6 33  1  0
  7 34  1  0
  7 35  1  0
  9 36  1  0
  9 37  1  0
 13 38  1  0
 14 39  1  0
 20 40  1  0
 22 41  1  0
 22 42  1  0
 23 43  1  0
 23 44  1  0
M  END
$$$$
