
     RDKit          3D

 40 42  0  0  0  0  0  0  0  0999 V2000
   -4.0619   -0.4046   -3.4414 O   0  0  0  0  0  0  0  0  0  0  0  0
   -3.7718    0.7425   -3.0098 C   0  0  0  0  0  0  0  0  0  0  0  0
   -4.5577    1.9658   -3.3462 C   0  0  0  0  0  0  0  0  0  0  0  0
   -3.7552    3.1127   -2.7025 C   0  0  0  0  0  0  0  0  0  0  0  0
   -2.6067    2.4229   -2.0457 C   0  0  0  0  0  0  0  0  0  0  0  0
   -1.7147    3.0278   -1.3933 O   0  0  0  0  0  0  0  0  0  0  0  0
   -2.6286    1.0138   -2.2108 N   0  0  0  0  0  0  0  0  0  0  0  0
   -1.6192    0.0893   -1.7663 C   0  0  0  0  0  0  0  0  0  0  0  0
   -1.9315   -1.2514   -1.4887 C   0  0  0  0  0  0  0  0  0  0  0  0
   -0.9268   -2.1160   -1.0500 C   0  0  0  0  0  0  0  0  0  0  0  0
    0.3782   -1.6427   -0.8808 C   0  0  0  0  0  0  0  0  0  0  0  0
    0.6522   -0.3000   -1.1603 C   0  0  0  0  0  0  0  0  0  0  0  0
   -0.3408    0.5244   -1.5865 N   0  0  0  0  0  0  0  0  0  0  0  0
    1.6609   -2.7109   -0.3201 S   0  0  0  0  0  0  0  0  0  0  0  0
    1.0728   -3.8897    0.4058 O   0  0  0  0  0  0  0  0  0  0  0  0
    2.4402   -3.2029   -1.5067 O   0  0  0  0  0  0  0  0  0  0  0  0
    2.7247   -1.8456    0.7476 N   0  0  0  0  0  0  0  0  0  0  0  0
    2.0239   -1.5204    1.9928 C   0  0  0  0  0  0  0  0  0  0  0  0
    2.8742   -0.5579    2.8373 C   0  0  0  0  0  0  0  0  0  0  0  0
    2.2191   -0.1862    4.1370 C   0  0  0  0  0  0  0  0  0  0  0  0
    2.7588    1.2073    4.3970 C   0  0  0  0  0  0  0  0  0  0  0  0
    3.2052    1.7768    3.1857 O   0  0  0  0  0  0  0  0  0  0  0  0
    3.0804    0.7977    2.1802 C   0  0  0  0  0  0  0  0  0  0  0  0
   -4.6177    2.0933   -4.4484 H   0  0  0  0  0  0  0  0  0  0  0  0
   -5.5766    1.8978   -2.9084 H   0  0  0  0  0  0  0  0  0  0  0  0
   -3.3853    3.8216   -3.4740 H   0  0  0  0  0  0  0  0  0  0  0  0
   -4.3656    3.6489   -1.9446 H   0  0  0  0  0  0  0  0  0  0  0  0
   -2.9421   -1.6235   -1.5816 H   0  0  0  0  0  0  0  0  0  0  0  0
   -1.1697   -3.1489   -0.8362 H   0  0  0  0  0  0  0  0  0  0  0  0
    1.6527    0.0932   -1.0364 H   0  0  0  0  0  0  0  0  0  0  0  0
    3.5168   -2.4893    0.9776 H   0  0  0  0  0  0  0  0  0  0  0  0
    1.0420   -1.0453    1.7719 H   0  0  0  0  0  0  0  0  0  0  0  0
    1.8374   -2.4496    2.5771 H   0  0  0  0  0  0  0  0  0  0  0  0
    3.8660   -1.0189    3.0502 H   0  0  0  0  0  0  0  0  0  0  0  0
    1.1114   -0.1410    4.0338 H   0  0  0  0  0  0  0  0  0  0  0  0
    2.4911   -0.8927    4.9514 H   0  0  0  0  0  0  0  0  0  0  0  0
    1.9724    1.8512    4.8457 H   0  0  0  0  0  0  0  0  0  0  0  0
    3.6156    1.1535    5.1031 H   0  0  0  0  0  0  0  0  0  0  0  0
    2.2166    1.0669    1.5327 H   0  0  0  0  0  0  0  0  0  0  0  0
    3.9978    0.7866    1.5539 H   0  0  0  0  0  0  0  0  0  0  0  0
  1  2  2  0
  2  3  1  0
  3  4  1  0
  4  5  1  0
  5  6  2  0
  5  7  1  0
  7  8  1  0
  8  9  2  0
  9 10  1  0
 10 11  2  0
 11 12  1  0
 12 13  2  0
 11 14  1  0
 14 15  2  0
 14 16  2  0
 14 17  1  0
 17 18  1  0
 18 19  1  0
 19 20  1  0
 20 21  1  0
 21 22  1  0
 22 23  1  0
  7  2  1  0
  8 13  1  0
 23 19  1  0
  3 24  1  0
  3 25  1  0
  4 26  1  0
  4 27  1  0
  9 28  1  0
 10 29  1  0
 12 30  1  0
 17 31  1  0
 18 32  1  0
 18 33  1  0
 19 34  1  0
 20 35  1  0
 20 36  1  0
 21 37  1  0
 21 38  1  0
 23 39  1  0
 23 40  1  0
M  END
$$$$
