
     RDKit          3D

 51 53  0  0  0  0  0  0  0  0999 V2000
   -2.7611   -2.2899   -1.5196 C   0  0  0  0  0  0  0  0  0  0  0  0
   -3.1060   -1.3544   -0.4434 N   0  0  0  0  0  0  0  0  0  0  0  0
   -4.0351   -1.7725    0.6119 C   0  0  0  0  0  0  0  0  0  0  0  0
   -2.5721   -0.0103   -0.4068 C   0  0  0  0  0  0  0  0  0  0  0  0
   -2.9966    0.7945    0.4681 O   0  0  0  0  0  0  0  0  0  0  0  0
   -1.5528    0.4901   -1.4142 C   0  0  0  0  0  0  0  0  0  0  0  0
   -0.4856    1.2464   -0.7464 N   0  0  0  0  0  0  0  0  0  0  0  0
    0.7011    1.6619   -1.4385 C   0  0  0  0  0  0  0  0  0  0  0  0
    0.8486    1.4040   -2.6639 O   0  0  0  0  0  0  0  0  0  0  0  0
    1.8003    2.3528   -0.6937 C   0  0  0  0  0  0  0  0  0  0  0  0
    2.6724    1.3375   -0.0253 C   0  0  0  0  0  0  0  0  0  0  0  0
    3.8648    0.8765   -0.5780 C   0  0  0  0  0  0  0  0  0  0  0  0
    4.4833   -0.3024    0.4482 S   0  0  0  0  0  0  0  0  0  0  0  0
    3.2075   -0.1817    1.5450 C   0  0  0  0  0  0  0  0  0  0  0  0
    2.3072    0.7429    1.1431 N   0  0  0  0  0  0  0  0  0  0  0  0
    3.0602   -0.9754    2.7421 N   0  0  0  0  0  0  0  0  0  0  0  0
    3.9515   -2.1260    2.9602 C   0  0  0  0  0  0  0  0  0  0  0  0
    3.3219   -3.1597    3.8984 C   0  0  0  0  0  0  0  0  0  0  0  0
    2.9222   -2.5058    5.2191 C   0  0  0  0  0  0  0  0  0  0  0  0
    2.0340   -1.3751    4.9773 N   0  0  0  0  0  0  0  0  0  0  0  0
    2.1537   -0.5769    3.7951 C   0  0  0  0  0  0  0  0  0  0  0  0
    1.4524    0.4651    3.6865 O   0  0  0  0  0  0  0  0  0  0  0  0
   -2.2398    1.3521   -2.4519 C   0  0  0  0  0  0  0  0  0  0  0  0
   -2.4113    0.8791   -3.7647 C   0  0  0  0  0  0  0  0  0  0  0  0
   -3.0485    1.6717   -4.7243 C   0  0  0  0  0  0  0  0  0  0  0  0
   -3.5213    2.9411   -4.3835 C   0  0  0  0  0  0  0  0  0  0  0  0
   -3.3584    3.4207   -3.0819 C   0  0  0  0  0  0  0  0  0  0  0  0
   -2.7223    2.6320   -2.1187 C   0  0  0  0  0  0  0  0  0  0  0  0
   -2.9909   -1.8341   -2.5040 H   0  0  0  0  0  0  0  0  0  0  0  0
   -3.3406   -3.2331   -1.4463 H   0  0  0  0  0  0  0  0  0  0  0  0
   -1.6840   -2.5496   -1.4637 H   0  0  0  0  0  0  0  0  0  0  0  0
   -4.3439   -2.8322    0.4968 H   0  0  0  0  0  0  0  0  0  0  0  0
   -3.5481   -1.6643    1.6040 H   0  0  0  0  0  0  0  0  0  0  0  0
   -4.9466   -1.1390    0.5814 H   0  0  0  0  0  0  0  0  0  0  0  0
   -1.0677   -0.3747   -1.9103 H   0  0  0  0  0  0  0  0  0  0  0  0
   -0.5473    1.4445    0.2774 H   0  0  0  0  0  0  0  0  0  0  0  0
    2.3997    2.9758   -1.3924 H   0  0  0  0  0  0  0  0  0  0  0  0
    1.3660    3.0307    0.0715 H   0  0  0  0  0  0  0  0  0  0  0  0
    4.3090    1.2081   -1.5070 H   0  0  0  0  0  0  0  0  0  0  0  0
    4.1664   -2.6349    1.9960 H   0  0  0  0  0  0  0  0  0  0  0  0
    4.9127   -1.7680    3.3878 H   0  0  0  0  0  0  0  0  0  0  0  0
    4.0484   -3.9766    4.0938 H   0  0  0  0  0  0  0  0  0  0  0  0
    2.4231   -3.5998    3.4148 H   0  0  0  0  0  0  0  0  0  0  0  0
    2.4056   -3.2521    5.8592 H   0  0  0  0  0  0  0  0  0  0  0  0
    3.8284   -2.1509    5.7551 H   0  0  0  0  0  0  0  0  0  0  0  0
    1.3833   -1.0728    5.7362 H   0  0  0  0  0  0  0  0  0  0  0  0
   -2.0467   -0.0994   -4.0491 H   0  0  0  0  0  0  0  0  0  0  0  0
   -3.1747    1.3017   -5.7334 H   0  0  0  0  0  0  0  0  0  0  0  0
   -4.0136    3.5533   -5.1281 H   0  0  0  0  0  0  0  0  0  0  0  0
   -3.7243    4.4048   -2.8188 H   0  0  0  0  0  0  0  0  0  0  0  0
   -2.6012    3.0203   -1.1151 H   0  0  0  0  0  0  0  0  0  0  0  0
  1  2  1  0
  2  3  1  0
  2  4  1  0
  4  5  2  0
  4  6  1  0
  6  7  1  0
  7  8  1  0
  8  9  2  0
  8 10  1  0
 10 11  1  0
 11 12  2  0
 12 13  1  0
 13 14  1  0
 14 15  2  0
 14 16  1  0
 16 17  1  0
 17 18  1  0
 18 19  1  0
 19 20  1  0
 20 21  1  0
 21 22  2  0
  6 23  1  0
 23 24  2  0
 24 25  1  0
 25 26  2  0
 26 27  1  0
 27 28  2  0
 15 11  1  0
 21 16  1  0
 23 28  1  0
  1 29  1  0
  1 30  1  0
  1 31  1  0
  3 32  1  0
  3 33  1  0
  3 34  1  0
  6 35  1  0
  7 36  1  0
 10 37  1  0
 10 38  1  0
 12 39  1  0
 17 40  1  0
 17 41  1  0
 18 42  1  0
 18 43  1  0
 19 44  1  0
 19 45  1  0
 20 46  1  0
 24 47  1  0
 25 48  1  0
 26 49  1  0
 27 50  1  0
 28 51  1  0
M  END
$$$$
