
     RDKit          3D

 53 57  0  0  0  0  0  0  0  0999 V2000
    4.2928    1.6158    1.8934 O   0  0  0  0  0  0  0  0  0  0  0  0
    3.2313    1.2164    1.3444 C   0  0  0  0  0  0  0  0  0  0  0  0
    1.9520    1.8864    1.6612 C   0  0  0  0  0  0  0  0  0  0  0  0
    1.7495    2.4378    2.9546 C   0  0  0  0  0  0  0  0  0  0  0  0
    0.5423    3.0799    3.2833 C   0  0  0  0  0  0  0  0  0  0  0  0
   -0.4375    3.1644    2.2996 C   0  0  0  0  0  0  0  0  0  0  0  0
   -1.6922    3.7308    2.3319 C   0  0  0  0  0  0  0  0  0  0  0  0
   -2.2165    3.5309    1.0519 C   0  0  0  0  0  0  0  0  0  0  0  0
   -1.3231    2.8712    0.2713 N   0  0  0  0  0  0  0  0  0  0  0  0
   -0.2478    2.6533    1.0459 C   0  0  0  0  0  0  0  0  0  0  0  0
    0.9352    2.0099    0.6867 C   0  0  0  0  0  0  0  0  0  0  0  0
   -3.5576    3.9712    0.5918 C   0  0  0  0  0  0  0  0  0  0  0  0
   -4.5839    4.2352    1.5196 C   0  0  0  0  0  0  0  0  0  0  0  0
   -5.8460    4.6489    1.0826 C   0  0  0  0  0  0  0  0  0  0  0  0
   -6.0991    4.8059   -0.2814 C   0  0  0  0  0  0  0  0  0  0  0  0
   -5.0900    4.5497   -1.2116 C   0  0  0  0  0  0  0  0  0  0  0  0
   -3.8261    4.1347   -0.7807 C   0  0  0  0  0  0  0  0  0  0  0  0
    3.2902    0.0892    0.4658 N   0  0  0  0  0  0  0  0  0  0  0  0
    4.3438   -0.8317   -0.0009 C   0  0  0  0  0  0  0  0  0  0  0  0
    3.4296   -1.7821   -0.7084 C   0  0  0  0  0  0  0  0  0  0  0  0
    2.3701   -0.8325   -0.2299 C   0  0  0  0  0  0  0  0  0  0  0  0
    3.4069   -3.1101   -0.0661 N   0  0  0  0  0  0  0  0  0  0  0  0
    2.6993   -4.1120   -0.8841 C   0  0  0  0  0  0  0  0  0  0  0  0
    3.0373   -5.5316   -0.3790 C   0  0  0  0  0  0  0  0  0  0  0  0
    1.9028   -6.0926    0.4928 C   0  0  0  0  0  0  0  0  0  0  0  0
    0.6599   -6.2061   -0.1907 O   0  0  0  0  0  0  0  0  0  0  0  0
    0.4303   -5.1909   -1.1633 C   0  0  0  0  0  0  0  0  0  0  0  0
    1.1717   -3.8733   -0.8890 C   0  0  0  0  0  0  0  0  0  0  0  0
    2.5210    2.3584    3.7105 H   0  0  0  0  0  0  0  0  0  0  0  0
    0.3824    3.4946    4.2704 H   0  0  0  0  0  0  0  0  0  0  0  0
   -2.1522    4.2372    3.1699 H   0  0  0  0  0  0  0  0  0  0  0  0
   -1.4404    2.5666   -0.7203 H   0  0  0  0  0  0  0  0  0  0  0  0
    1.0676    1.6543   -0.3239 H   0  0  0  0  0  0  0  0  0  0  0  0
   -4.4207    4.1075    2.5814 H   0  0  0  0  0  0  0  0  0  0  0  0
   -6.6298    4.8452    1.8029 H   0  0  0  0  0  0  0  0  0  0  0  0
   -7.0766    5.1268   -0.6174 H   0  0  0  0  0  0  0  0  0  0  0  0
   -5.2859    4.6765   -2.2686 H   0  0  0  0  0  0  0  0  0  0  0  0
   -3.0592    3.9623   -1.5236 H   0  0  0  0  0  0  0  0  0  0  0  0
    5.0395   -0.3127   -0.6971 H   0  0  0  0  0  0  0  0  0  0  0  0
    4.8812   -1.2864    0.8618 H   0  0  0  0  0  0  0  0  0  0  0  0
    3.5872   -1.7928   -1.8107 H   0  0  0  0  0  0  0  0  0  0  0  0
    1.8655   -0.3321   -1.0841 H   0  0  0  0  0  0  0  0  0  0  0  0
    1.6409   -1.2699    0.4858 H   0  0  0  0  0  0  0  0  0  0  0  0
    3.0010   -3.0716    0.8995 H   0  0  0  0  0  0  0  0  0  0  0  0
    3.0673   -4.0539   -1.9344 H   0  0  0  0  0  0  0  0  0  0  0  0
    3.1789   -6.2124   -1.2475 H   0  0  0  0  0  0  0  0  0  0  0  0
    3.9882   -5.5314    0.1978 H   0  0  0  0  0  0  0  0  0  0  0  0
    2.1981   -7.1025    0.8473 H   0  0  0  0  0  0  0  0  0  0  0  0
    1.7705   -5.4568    1.3954 H   0  0  0  0  0  0  0  0  0  0  0  0
   -0.6595   -4.9809   -1.1965 H   0  0  0  0  0  0  0  0  0  0  0  0
    0.7187   -5.5774   -2.1651 H   0  0  0  0  0  0  0  0  0  0  0  0
    0.8273   -3.4834    0.0931 H   0  0  0  0  0  0  0  0  0  0  0  0
    0.9092   -3.1257   -1.6686 H   0  0  0  0  0  0  0  0  0  0  0  0
  1  2  2  0
  2  3  1  0
  3  4  2  0
  4  5  1  0
  5  6  2  0
  6  7  1  0
  7  8  2  0
  8  9  1  0
  9 10  1  0
 10 11  2  0
  8 12  1  0
 12 13  2  0
 13 14  1  0
 14 15  2  0
 15 16  1  0
 16 17  2  0
  2 18  1  0
 18 19  1  0
 19 20  1  0
 20 21  1  0
 20 22  1  0
 22 23  1  0
 23 24  1  0
 24 25  1  0
 25 26  1  0
 26 27  1  0
 27 28  1  0
  3 11  1  0
  6 10  1  0
 12 17  1  0
 21 18  1  0
 28 23  1  0
  4 29  1  0
  5 30  1  0
  7 31  1  0
  9 32  1  0
 11 33  1  0
 13 34  1  0
 14 35  1  0
 15 36  1  0
 16 37  1  0
 17 38  1  0
 19 39  1  0
 19 40  1  0
 20 41  1  0
 21 42  1  0
 21 43  1  0
 22 44  1  0
 23 45  1  0
 24 46  1  0
 24 47  1  0
 25 48  1  0
 25 49  1  0
 27 50  1  0
 27 51  1  0
 28 52  1  0
 28 53  1  0
M  END
$$$$
