
     RDKit          3D

 40 42  0  0  0  0  0  0  0  0999 V2000
   -0.4523    1.8145   -1.4959 O   0  0  0  0  0  0  0  0  0  0  0  0
   -0.4110    0.8684   -0.6622 C   0  0  0  0  0  0  0  0  0  0  0  0
    0.0962    1.1080    0.6617 N   0  0  0  0  0  0  0  0  0  0  0  0
    0.9715    2.1992    0.9965 C   0  0  0  0  0  0  0  0  0  0  0  0
    0.9347    2.7406    2.2896 C   0  0  0  0  0  0  0  0  0  0  0  0
    1.7901    3.7872    2.6446 C   0  0  0  0  0  0  0  0  0  0  0  0
    2.7065    4.3021    1.7211 C   0  0  0  0  0  0  0  0  0  0  0  0
    2.7621    3.7467    0.4287 C   0  0  0  0  0  0  0  0  0  0  0  0
    1.9056    2.7003    0.0728 C   0  0  0  0  0  0  0  0  0  0  0  0
    3.5420    5.3537    2.1282 O   0  0  0  0  0  0  0  0  0  0  0  0
    4.5029    5.9963    1.2953 C   0  0  0  0  0  0  0  0  0  0  0  0
    5.2032    6.9216    2.0447 F   0  0  0  0  0  0  0  0  0  0  0  0
    3.8652    6.6496    0.2561 F   0  0  0  0  0  0  0  0  0  0  0  0
   -0.9351   -0.4652   -1.0455 C   0  0  0  0  0  0  0  0  0  0  0  0
   -0.5765   -1.6177   -0.3235 C   0  0  0  0  0  0  0  0  0  0  0  0
   -1.0710   -2.8713   -0.6952 C   0  0  0  0  0  0  0  0  0  0  0  0
   -1.9416   -2.9965   -1.7907 C   0  0  0  0  0  0  0  0  0  0  0  0
   -2.2718   -1.8546   -2.5325 C   0  0  0  0  0  0  0  0  0  0  0  0
   -1.7786   -0.6003   -2.1625 C   0  0  0  0  0  0  0  0  0  0  0  0
   -2.4431   -4.2780   -2.2070 N   0  0  0  0  0  0  0  0  0  0  0  0
   -2.8041   -5.3348   -1.3061 C   0  0  0  0  0  0  0  0  0  0  0  0
   -2.9478   -5.0976    0.0273 N   0  0  0  0  0  0  0  0  0  0  0  0
   -3.3176   -6.0878    0.8802 C   0  0  0  0  0  0  0  0  0  0  0  0
   -3.5663   -7.3690    0.3911 C   0  0  0  0  0  0  0  0  0  0  0  0
   -3.4289   -7.5947   -0.9775 C   0  0  0  0  0  0  0  0  0  0  0  0
   -3.0566   -6.5780   -1.7979 N   0  0  0  0  0  0  0  0  0  0  0  0
   -0.2803    0.5266    1.4441 H   0  0  0  0  0  0  0  0  0  0  0  0
    0.2346    2.3566    3.0210 H   0  0  0  0  0  0  0  0  0  0  0  0
    1.7418    4.2001    3.6444 H   0  0  0  0  0  0  0  0  0  0  0  0
    3.4683    4.1087   -0.3056 H   0  0  0  0  0  0  0  0  0  0  0  0
    1.9914    2.2698   -0.9161 H   0  0  0  0  0  0  0  0  0  0  0  0
    5.2199    5.2509    0.8910 H   0  0  0  0  0  0  0  0  0  0  0  0
    0.1081   -1.5600    0.5125 H   0  0  0  0  0  0  0  0  0  0  0  0
   -0.7476   -3.7443   -0.1440 H   0  0  0  0  0  0  0  0  0  0  0  0
   -2.9228   -1.9360   -3.3940 H   0  0  0  0  0  0  0  0  0  0  0  0
   -2.0639    0.2652   -2.7474 H   0  0  0  0  0  0  0  0  0  0  0  0
   -2.6345   -4.4252   -3.2241 H   0  0  0  0  0  0  0  0  0  0  0  0
   -3.4212   -5.8787    1.9365 H   0  0  0  0  0  0  0  0  0  0  0  0
   -3.8630   -8.1685    1.0575 H   0  0  0  0  0  0  0  0  0  0  0  0
   -3.6206   -8.5767   -1.3889 H   0  0  0  0  0  0  0  0  0  0  0  0
  1  2  2  0
  2  3  1  0
  3  4  1  0
  4  5  2  0
  5  6  1  0
  6  7  2  0
  7  8  1  0
  8  9  2  0
  7 10  1  0
 10 11  1  0
 11 12  1  0
 11 13  1  0
  2 14  1  0
 14 15  2  0
 15 16  1  0
 16 17  2  0
 17 18  1  0
 18 19  2  0
 17 20  1  0
 20 21  1  0
 21 22  2  0
 22 23  1  0
 23 24  2  0
 24 25  1  0
 25 26  2  0
  4  9  1  0
 14 19  1  0
 21 26  1  0
  3 27  1  0
  5 28  1  0
  6 29  1  0
  8 30  1  0
  9 31  1  0
 11 32  1  0
 15 33  1  0
 16 34  1  0
 18 35  1  0
 19 36  1  0
 20 37  1  0
 23 38  1  0
 24 39  1  0
 25 40  1  0
M  END
$$$$
