
     RDKit          3D

 35 37  0  0  0  0  0  0  0  0999 V2000
   -0.0955    0.9749    3.4265 O   0  0  0  0  0  0  0  0  0  0  0  0
   -0.0361    0.8692    2.1716 C   0  0  0  0  0  0  0  0  0  0  0  0
    0.0166   -0.4467    1.6063 N   0  0  0  0  0  0  0  0  0  0  0  0
    0.0424   -1.1319    0.2974 C   0  0  0  0  0  0  0  0  0  0  0  0
    0.1051   -2.5236    0.8449 C   0  0  0  0  0  0  0  0  0  0  0  0
   -1.1388   -3.3700    0.5544 C   0  0  0  0  0  0  0  0  0  0  0  0
   -1.0997   -4.5263    1.3115 F   0  0  0  0  0  0  0  0  0  0  0  0
    0.0747   -1.8125    2.1617 C   0  0  0  0  0  0  0  0  0  0  0  0
   -0.0874    2.1431    1.3285 C   0  0  0  0  0  0  0  0  0  0  0  0
    0.5718    3.1928    2.0079 O   0  0  0  0  0  0  0  0  0  0  0  0
   -1.5645    2.5909    1.1944 C   0  0  0  0  0  0  0  0  0  0  0  0
   -2.2954    1.8319    0.1355 C   0  0  0  0  0  0  0  0  0  0  0  0
   -3.5061    1.5217    0.2922 O   0  0  0  0  0  0  0  0  0  0  0  0
   -1.6346    1.5442   -1.0934 N   0  0  0  0  0  0  0  0  0  0  0  0
   -0.2120    1.6800   -1.1969 C   0  0  0  0  0  0  0  0  0  0  0  0
    0.4101    1.4718   -2.4359 C   0  0  0  0  0  0  0  0  0  0  0  0
    1.7996    1.5158   -2.5448 C   0  0  0  0  0  0  0  0  0  0  0  0
    2.5820    1.7516   -1.4143 C   0  0  0  0  0  0  0  0  0  0  0  0
    4.4861    1.7734   -1.5616 Br  0  0  0  0  0  0  0  0  0  0  0  0
    1.9753    1.9588   -0.1722 C   0  0  0  0  0  0  0  0  0  0  0  0
    0.5703    1.9514   -0.0453 C   0  0  0  0  0  0  0  0  0  0  0  0
    0.9620   -0.8717   -0.2716 H   0  0  0  0  0  0  0  0  0  0  0  0
   -0.8847   -0.9240   -0.2801 H   0  0  0  0  0  0  0  0  0  0  0  0
    1.0704   -3.0367    0.6393 H   0  0  0  0  0  0  0  0  0  0  0  0
   -1.1515   -3.6464   -0.5207 H   0  0  0  0  0  0  0  0  0  0  0  0
   -2.0735   -2.8150    0.7890 H   0  0  0  0  0  0  0  0  0  0  0  0
   -0.8290   -2.0268    2.7758 H   0  0  0  0  0  0  0  0  0  0  0  0
    1.0127   -1.9607    2.7417 H   0  0  0  0  0  0  0  0  0  0  0  0
    1.4089    2.8483    2.4156 H   0  0  0  0  0  0  0  0  0  0  0  0
   -2.0933    2.4961    2.1691 H   0  0  0  0  0  0  0  0  0  0  0  0
   -1.5984    3.6651    0.9084 H   0  0  0  0  0  0  0  0  0  0  0  0
   -2.1906    1.1846   -1.9021 H   0  0  0  0  0  0  0  0  0  0  0  0
   -0.1842    1.2610   -3.3161 H   0  0  0  0  0  0  0  0  0  0  0  0
    2.2686    1.3498   -3.5062 H   0  0  0  0  0  0  0  0  0  0  0  0
    2.6095    2.1108    0.6895 H   0  0  0  0  0  0  0  0  0  0  0  0
  1  2  2  0
  2  3  1  0
  3  4  1  0
  4  5  1  0
  5  6  1  0
  6  7  1  0
  5  8  1  0
  2  9  1  0
  9 10  1  0
  9 11  1  0
 11 12  1  0
 12 13  2  0
 12 14  1  0
 14 15  1  0
 15 16  2  0
 16 17  1  0
 17 18  2  0
 18 19  1  0
 18 20  1  0
 20 21  2  0
  8  3  1  0
 21  9  1  0
 15 21  1  0
  4 22  1  0
  4 23  1  0
  5 24  1  0
  6 25  1  0
  6 26  1  0
  8 27  1  0
  8 28  1  0
 10 29  1  0
 11 30  1  0
 11 31  1  0
 14 32  1  0
 16 33  1  0
 17 34  1  0
 20 35  1  0
M  END
$$$$
