
     RDKit          3D

 46 47  0  0  0  0  0  0  0  0999 V2000
   -4.3145    2.4777   -2.3803 C   0  0  0  0  0  0  0  0  0  0  0  0
   -3.6363    2.4600   -1.0152 C   0  0  0  0  0  0  0  0  0  0  0  0
   -2.3874    1.7739   -1.0827 O   0  0  0  0  0  0  0  0  0  0  0  0
   -1.2295    2.3297   -1.6407 C   0  0  0  0  0  0  0  0  0  0  0  0
   -1.2365    3.5152   -2.0695 O   0  0  0  0  0  0  0  0  0  0  0  0
   -0.0018    1.5131   -1.7115 C   0  0  0  0  0  0  0  0  0  0  0  0
    0.0851    0.2065   -1.2641 C   0  0  0  0  0  0  0  0  0  0  0  0
    1.3873   -0.1852   -1.4911 C   0  0  0  0  0  0  0  0  0  0  0  0
    2.0507    0.8798   -2.0608 C   0  0  0  0  0  0  0  0  0  0  0  0
    1.1988    1.9157   -2.1981 N   0  0  0  0  0  0  0  0  0  0  0  0
    1.5483    3.2217   -2.7529 C   0  0  0  0  0  0  0  0  0  0  0  0
    2.0831   -1.7350   -1.0550 S   0  0  0  0  0  0  0  0  0  0  0  0
    3.5834   -1.6657   -1.1099 O   0  0  0  0  0  0  0  0  0  0  0  0
    1.5983   -2.7738   -2.0261 O   0  0  0  0  0  0  0  0  0  0  0  0
    1.5847   -2.1645    0.5494 N   0  0  0  0  0  0  0  0  0  0  0  0
    1.4253   -1.1844    1.5902 C   0  0  0  0  0  0  0  0  0  0  0  0
    2.3413   -0.1211    1.6906 C   0  0  0  0  0  0  0  0  0  0  0  0
    2.2091    0.8420    2.6915 C   0  0  0  0  0  0  0  0  0  0  0  0
    1.1647    0.7567    3.6100 C   0  0  0  0  0  0  0  0  0  0  0  0
    1.0395    1.6931    4.5827 F   0  0  0  0  0  0  0  0  0  0  0  0
    0.2470   -0.2917    3.5285 C   0  0  0  0  0  0  0  0  0  0  0  0
    0.3592   -1.2690    2.5228 C   0  0  0  0  0  0  0  0  0  0  0  0
   -0.6768   -2.3669    2.4722 C   0  0  0  0  0  0  0  0  0  0  0  0
   -0.3028   -3.6582    3.6514 S   0  0  0  0  0  0  0  0  0  0  0  0
    1.2967   -4.3767    3.3436 C   0  0  0  0  0  0  0  0  0  0  0  0
   -0.3264   -3.0897    5.0426 O   0  0  0  0  0  0  0  0  0  0  0  0
   -1.3475   -4.7329    3.5437 O   0  0  0  0  0  0  0  0  0  0  0  0
   -3.6961    3.0364   -3.1134 H   0  0  0  0  0  0  0  0  0  0  0  0
   -5.3054    2.9722   -2.2985 H   0  0  0  0  0  0  0  0  0  0  0  0
   -4.4601    1.4385   -2.7441 H   0  0  0  0  0  0  0  0  0  0  0  0
   -4.2943    1.9269   -0.2972 H   0  0  0  0  0  0  0  0  0  0  0  0
   -3.4894    3.4970   -0.6429 H   0  0  0  0  0  0  0  0  0  0  0  0
   -0.6989   -0.3851   -0.8087 H   0  0  0  0  0  0  0  0  0  0  0  0
    3.0955    0.8996   -2.3450 H   0  0  0  0  0  0  0  0  0  0  0  0
    2.6127    3.2402   -3.0717 H   0  0  0  0  0  0  0  0  0  0  0  0
    0.9144    3.4357   -3.6391 H   0  0  0  0  0  0  0  0  0  0  0  0
    1.3988    4.0088   -1.9841 H   0  0  0  0  0  0  0  0  0  0  0  0
    1.2964   -3.1539    0.7056 H   0  0  0  0  0  0  0  0  0  0  0  0
    3.1702   -0.0409    1.0006 H   0  0  0  0  0  0  0  0  0  0  0  0
    2.9225    1.6536    2.7564 H   0  0  0  0  0  0  0  0  0  0  0  0
   -0.5606   -0.3395    4.2489 H   0  0  0  0  0  0  0  0  0  0  0  0
   -0.7738   -2.8015    1.4572 H   0  0  0  0  0  0  0  0  0  0  0  0
   -1.6749   -1.9462    2.7204 H   0  0  0  0  0  0  0  0  0  0  0  0
    1.5340   -5.1056    4.1456 H   0  0  0  0  0  0  0  0  0  0  0  0
    2.0711   -3.5822    3.3329 H   0  0  0  0  0  0  0  0  0  0  0  0
    1.2874   -4.9034    2.3676 H   0  0  0  0  0  0  0  0  0  0  0  0
  1  2  1  0
  2  3  1  0
  3  4  1  0
  4  5  2  0
  4  6  1  0
  6  7  2  0
  7  8  1  0
  8  9  2  0
  9 10  1  0
 10 11  1  0
  8 12  1  0
 12 13  2  0
 12 14  2  0
 12 15  1  0
 15 16  1  0
 16 17  2  0
 17 18  1  0
 18 19  2  0
 19 20  1  0
 19 21  1  0
 21 22  2  0
 22 23  1  0
 23 24  1  0
 24 25  1  0
 24 26  2  0
 24 27  2  0
 10  6  1  0
 16 22  1  0
  1 28  1  0
  1 29  1  0
  1 30  1  0
  2 31  1  0
  2 32  1  0
  7 33  1  0
  9 34  1  0
 11 35  1  0
 11 36  1  0
 11 37  1  0
 15 38  1  0
 17 39  1  0
 18 40  1  0
 21 41  1  0
 23 42  1  0
 23 43  1  0
 25 44  1  0
 25 45  1  0
 25 46  1  0
M  END
$$$$
