
     RDKit          3D

 42 44  0  0  0  0  0  0  0  0999 V2000
   -5.0474   -2.2852    4.4858 C   0  0  0  0  0  0  0  0  0  0  0  0
   -3.9403   -2.2235    3.4896 C   0  0  0  0  0  0  0  0  0  0  0  0
   -3.1774   -3.2862    3.1592 N   0  0  0  0  0  0  0  0  0  0  0  0
   -2.3407   -2.7926    2.2264 C   0  0  0  0  0  0  0  0  0  0  0  0
   -2.6315   -1.4564    2.0242 C   0  0  0  0  0  0  0  0  0  0  0  0
   -3.6254   -1.1400    2.8180 O   0  0  0  0  0  0  0  0  0  0  0  0
   -1.9745   -0.5107    1.0938 C   0  0  0  0  0  0  0  0  0  0  0  0
   -2.4167    0.8200    1.0304 C   0  0  0  0  0  0  0  0  0  0  0  0
   -1.8089    1.7296    0.1611 C   0  0  0  0  0  0  0  0  0  0  0  0
   -0.7479    1.3307   -0.6646 C   0  0  0  0  0  0  0  0  0  0  0  0
   -0.3040   -0.0032   -0.6026 C   0  0  0  0  0  0  0  0  0  0  0  0
   -0.9109   -0.9133    0.2678 C   0  0  0  0  0  0  0  0  0  0  0  0
   -0.1372    2.2993   -1.5374 N   0  0  0  0  0  0  0  0  0  0  0  0
    1.1726    1.9469   -2.6223 S   0  0  0  0  0  0  0  0  0  0  0  0
    1.4741    3.1776   -3.4299 O   0  0  0  0  0  0  0  0  0  0  0  0
    0.7411    0.8454   -3.5496 O   0  0  0  0  0  0  0  0  0  0  0  0
    2.6291    1.4852   -1.7226 C   0  0  0  0  0  0  0  0  0  0  0  0
    2.6978    1.7841   -0.3518 C   0  0  0  0  0  0  0  0  0  0  0  0
    3.8116    1.4097    0.4109 C   0  0  0  0  0  0  0  0  0  0  0  0
    3.8783    1.7568    1.8690 C   0  0  0  0  0  0  0  0  0  0  0  0
    4.8876    0.7672   -0.2114 C   0  0  0  0  0  0  0  0  0  0  0  0
    4.8431    0.4826   -1.5765 C   0  0  0  0  0  0  0  0  0  0  0  0
    3.7275    0.8464   -2.3496 C   0  0  0  0  0  0  0  0  0  0  0  0
    3.7239    0.5154   -3.8184 C   0  0  0  0  0  0  0  0  0  0  0  0
   -5.2620   -1.2684    4.8760 H   0  0  0  0  0  0  0  0  0  0  0  0
   -5.9591   -2.6905    4.0002 H   0  0  0  0  0  0  0  0  0  0  0  0
   -4.7581   -2.9431    5.3319 H   0  0  0  0  0  0  0  0  0  0  0  0
   -1.5778   -3.3789    1.7337 H   0  0  0  0  0  0  0  0  0  0  0  0
   -3.2335    1.1596    1.6554 H   0  0  0  0  0  0  0  0  0  0  0  0
   -2.1663    2.7514    0.1332 H   0  0  0  0  0  0  0  0  0  0  0  0
    0.5134   -0.3524   -1.2161 H   0  0  0  0  0  0  0  0  0  0  0  0
   -0.5413   -1.9291    0.2896 H   0  0  0  0  0  0  0  0  0  0  0  0
   -0.4920    3.2819   -1.5307 H   0  0  0  0  0  0  0  0  0  0  0  0
    1.8820    2.3072    0.1300 H   0  0  0  0  0  0  0  0  0  0  0  0
    4.5190    1.0336    2.4172 H   0  0  0  0  0  0  0  0  0  0  0  0
    4.3009    2.7765    1.9866 H   0  0  0  0  0  0  0  0  0  0  0  0
    2.8649    1.7294    2.3234 H   0  0  0  0  0  0  0  0  0  0  0  0
    5.7643    0.4877    0.3599 H   0  0  0  0  0  0  0  0  0  0  0  0
    5.6879   -0.0191   -2.0323 H   0  0  0  0  0  0  0  0  0  0  0  0
    3.3783    1.3866   -4.4126 H   0  0  0  0  0  0  0  0  0  0  0  0
    3.0578   -0.3526   -4.0034 H   0  0  0  0  0  0  0  0  0  0  0  0
    4.7422    0.2547   -4.1778 H   0  0  0  0  0  0  0  0  0  0  0  0
  1  2  1  0
  2  3  2  0
  3  4  1  0
  4  5  2  0
  5  6  1  0
  5  7  1  0
  7  8  2  0
  8  9  1  0
  9 10  2  0
 10 11  1  0
 11 12  2  0
 10 13  1  0
 13 14  1  0
 14 15  2  0
 14 16  2  0
 14 17  1  0
 17 18  2  0
 18 19  1  0
 19 20  1  0
 19 21  2  0
 21 22  1  0
 22 23  2  0
 23 24  1  0
  6  2  1  0
  7 12  1  0
 17 23  1  0
  1 25  1  0
  1 26  1  0
  1 27  1  0
  4 28  1  0
  8 29  1  0
  9 30  1  0
 11 31  1  0
 12 32  1  0
 13 33  1  0
 18 34  1  0
 20 35  1  0
 20 36  1  0
 20 37  1  0
 21 38  1  0
 22 39  1  0
 24 40  1  0
 24 41  1  0
 24 42  1  0
M  END
$$$$
