
     RDKit          3D

 44 47  0  0  0  0  0  0  0  0999 V2000
   -0.6906   -5.3246   -1.3571 C   0  0  0  0  0  0  0  0  0  0  0  0
   -0.7245   -4.3157   -0.3908 C   0  0  0  0  0  0  0  0  0  0  0  0
    0.4457   -3.6278   -0.0551 C   0  0  0  0  0  0  0  0  0  0  0  0
    1.6580   -3.9359   -0.6997 C   0  0  0  0  0  0  0  0  0  0  0  0
    1.6871   -4.9649   -1.6494 C   0  0  0  0  0  0  0  0  0  0  0  0
    0.5156   -5.6528   -1.9823 C   0  0  0  0  0  0  0  0  0  0  0  0
    2.8512   -3.2690   -0.3896 O   0  0  0  0  0  0  0  0  0  0  0  0
    2.9385   -1.9181   -0.0311 C   0  0  0  0  0  0  0  0  0  0  0  0
    4.0786   -1.4564    0.6269 C   0  0  0  0  0  0  0  0  0  0  0  0
    4.1545   -0.1055    0.9621 C   0  0  0  0  0  0  0  0  0  0  0  0
    3.1370    0.7326    0.6356 N   0  0  0  0  0  0  0  0  0  0  0  0
    2.0353    0.2762   -0.0182 C   0  0  0  0  0  0  0  0  0  0  0  0
    1.9457   -1.0415   -0.3475 N   0  0  0  0  0  0  0  0  0  0  0  0
    0.9862    1.1900   -0.3641 N   0  0  0  0  0  0  0  0  0  0  0  0
   -0.1903    0.7842   -1.1419 C   0  0  0  0  0  0  0  0  0  0  0  0
   -1.1266   -0.1097   -0.2846 C   0  0  0  0  0  0  0  0  0  0  0  0
   -2.6251    0.1834   -0.4822 C   0  0  0  0  0  0  0  0  0  0  0  0
   -2.9632    0.4485   -1.9569 C   0  0  0  0  0  0  0  0  0  0  0  0
   -4.3334    0.7712   -2.0690 O   0  0  0  0  0  0  0  0  0  0  0  0
   -4.4312    1.9308   -2.8610 C   0  0  0  0  0  0  0  0  0  0  0  0
   -3.1274    2.6902   -2.7714 C   0  0  0  0  0  0  0  0  0  0  0  0
   -2.1231    1.5892   -2.5577 C   0  0  0  0  0  0  0  0  0  0  0  0
   -0.9252    2.0224   -1.6846 C   0  0  0  0  0  0  0  0  0  0  0  0
   -1.5966   -5.8575   -1.6152 H   0  0  0  0  0  0  0  0  0  0  0  0
   -1.6557   -4.0714    0.1039 H   0  0  0  0  0  0  0  0  0  0  0  0
    0.4087   -2.8748    0.7207 H   0  0  0  0  0  0  0  0  0  0  0  0
    2.6176   -5.2236   -2.1386 H   0  0  0  0  0  0  0  0  0  0  0  0
    0.5432   -6.4400   -2.7245 H   0  0  0  0  0  0  0  0  0  0  0  0
    4.8860   -2.1322    0.8782 H   0  0  0  0  0  0  0  0  0  0  0  0
    5.0239    0.2784    1.4790 H   0  0  0  0  0  0  0  0  0  0  0  0
    1.1046    2.1932   -0.0933 H   0  0  0  0  0  0  0  0  0  0  0  0
    0.1557    0.1978   -2.0236 H   0  0  0  0  0  0  0  0  0  0  0  0
   -0.8926    0.0061    0.7965 H   0  0  0  0  0  0  0  0  0  0  0  0
   -0.9395   -1.1718   -0.5480 H   0  0  0  0  0  0  0  0  0  0  0  0
   -3.2197   -0.6803   -0.1129 H   0  0  0  0  0  0  0  0  0  0  0  0
   -2.9110    1.0698    0.1264 H   0  0  0  0  0  0  0  0  0  0  0  0
   -2.7737   -0.4869   -2.5300 H   0  0  0  0  0  0  0  0  0  0  0  0
   -5.2728    2.5607   -2.5023 H   0  0  0  0  0  0  0  0  0  0  0  0
   -4.6310    1.6362   -3.9150 H   0  0  0  0  0  0  0  0  0  0  0  0
   -2.9218    3.2643   -3.7011 H   0  0  0  0  0  0  0  0  0  0  0  0
   -3.1695    3.3836   -1.9023 H   0  0  0  0  0  0  0  0  0  0  0  0
   -1.7390    1.2591   -3.5505 H   0  0  0  0  0  0  0  0  0  0  0  0
   -1.2618    2.6476   -0.8278 H   0  0  0  0  0  0  0  0  0  0  0  0
   -0.2289    2.6342   -2.2991 H   0  0  0  0  0  0  0  0  0  0  0  0
  1  2  2  0
  2  3  1  0
  3  4  2  0
  4  5  1  0
  5  6  2  0
  4  7  1  0
  7  8  1  0
  8  9  2  0
  9 10  1  0
 10 11  2  0
 11 12  1  0
 12 13  2  0
 12 14  1  0
 14 15  1  0
 15 16  1  0
 16 17  1  0
 17 18  1  0
 18 19  1  0
 19 20  1  0
 20 21  1  0
 21 22  1  0
 22 23  1  0
  6  1  1  0
  8 13  1  0
 23 15  1  0
 22 18  1  0
  1 24  1  0
  2 25  1  0
  3 26  1  0
  5 27  1  0
  6 28  1  0
  9 29  1  0
 10 30  1  0
 14 31  1  0
 15 32  1  0
 16 33  1  0
 16 34  1  0
 17 35  1  0
 17 36  1  0
 18 37  1  0
 20 38  1  0
 20 39  1  0
 21 40  1  0
 21 41  1  0
 22 42  1  0
 23 43  1  0
 23 44  1  0
M  END
$$$$
