
     RDKit          3D

 36 39  0  0  0  0  0  0  0  0999 V2000
   -0.4672   -2.9902    0.0518 O   0  0  0  0  0  0  0  0  0  0  0  0
   -0.7566   -1.9850   -0.6530 C   0  0  0  0  0  0  0  0  0  0  0  0
   -2.0963   -1.7551   -0.9754 C   0  0  0  0  0  0  0  0  0  0  0  0
   -2.4388   -0.6644   -1.7685 C   0  0  0  0  0  0  0  0  0  0  0  0
   -1.4419    0.1868   -2.2534 C   0  0  0  0  0  0  0  0  0  0  0  0
   -0.1063   -0.0760   -1.9132 C   0  0  0  0  0  0  0  0  0  0  0  0
    0.2221   -1.1272   -1.0967 N   0  0  0  0  0  0  0  0  0  0  0  0
    1.6407   -1.3346   -0.7419 C   0  0  0  0  0  0  0  0  0  0  0  0
    2.2460   -0.0939   -0.1363 C   0  0  0  0  0  0  0  0  0  0  0  0
    3.3679    0.4810   -0.6129 N   0  0  0  0  0  0  0  0  0  0  0  0
    3.4714    1.5923    0.1485 C   0  0  0  0  0  0  0  0  0  0  0  0
    2.4664    1.7042    1.0387 N   0  0  0  0  0  0  0  0  0  0  0  0
    1.7098    0.6366    0.8634 N   0  0  0  0  0  0  0  0  0  0  0  0
    0.5016    0.3899    1.5935 C   0  0  0  0  0  0  0  0  0  0  0  0
   -0.4991    1.3715    1.6417 C   0  0  0  0  0  0  0  0  0  0  0  0
   -1.6905    1.1275    2.3317 C   0  0  0  0  0  0  0  0  0  0  0  0
   -1.8821   -0.0916    2.9885 C   0  0  0  0  0  0  0  0  0  0  0  0
   -0.8796   -1.0653    2.9614 C   0  0  0  0  0  0  0  0  0  0  0  0
    0.3118   -0.8249    2.2700 C   0  0  0  0  0  0  0  0  0  0  0  0
   -1.7952    1.3409   -3.1028 C   0  0  0  0  0  0  0  0  0  0  0  0
   -0.9063    2.2175   -3.6088 N   0  0  0  0  0  0  0  0  0  0  0  0
   -1.6079    3.0972   -4.3059 N   0  0  0  0  0  0  0  0  0  0  0  0
   -2.8982    2.7279   -4.2013 C   0  0  0  0  0  0  0  0  0  0  0  0
   -3.0180    1.6505   -3.4637 O   0  0  0  0  0  0  0  0  0  0  0  0
   -2.8702   -2.4211   -0.6137 H   0  0  0  0  0  0  0  0  0  0  0  0
   -3.4804   -0.4923   -2.0098 H   0  0  0  0  0  0  0  0  0  0  0  0
    0.6736    0.5763   -2.2899 H   0  0  0  0  0  0  0  0  0  0  0  0
    1.7763   -2.1672   -0.0212 H   0  0  0  0  0  0  0  0  0  0  0  0
    2.2040   -1.6102   -1.6597 H   0  0  0  0  0  0  0  0  0  0  0  0
    4.2662    2.3185    0.0460 H   0  0  0  0  0  0  0  0  0  0  0  0
   -0.3625    2.3144    1.1273 H   0  0  0  0  0  0  0  0  0  0  0  0
   -2.4659    1.8822    2.3555 H   0  0  0  0  0  0  0  0  0  0  0  0
   -2.8050   -0.2799    3.5215 H   0  0  0  0  0  0  0  0  0  0  0  0
   -1.0257   -2.0064    3.4756 H   0  0  0  0  0  0  0  0  0  0  0  0
    1.0853   -1.5816    2.2621 H   0  0  0  0  0  0  0  0  0  0  0  0
   -3.7235    3.2516   -4.6645 H   0  0  0  0  0  0  0  0  0  0  0  0
  1  2  2  0
  2  3  1  0
  3  4  2  0
  4  5  1  0
  5  6  2  0
  6  7  1  0
  7  8  1  0
  8  9  1  0
  9 10  2  0
 10 11  1  0
 11 12  2  0
 12 13  1  0
 13 14  1  0
 14 15  2  0
 15 16  1  0
 16 17  2  0
 17 18  1  0
 18 19  2  0
  5 20  1  0
 20 21  2  0
 21 22  1  0
 22 23  2  0
 23 24  1  0
  7  2  1  0
 13  9  1  0
 14 19  1  0
 24 20  1  0
  3 25  1  0
  4 26  1  0
  6 27  1  0
  8 28  1  0
  8 29  1  0
 11 30  1  0
 15 31  1  0
 16 32  1  0
 17 33  1  0
 18 34  1  0
 19 35  1  0
 23 36  1  0
M  END
$$$$
