
     RDKit          3D

 49 51  0  0  0  0  0  0  0  0999 V2000
   -5.3031    3.0710   -3.0432 C   0  0  0  0  0  0  0  0  0  0  0  0
   -4.2173    2.2396   -2.6510 O   0  0  0  0  0  0  0  0  0  0  0  0
   -3.1022    2.7267   -1.9646 C   0  0  0  0  0  0  0  0  0  0  0  0
   -3.0048    4.0434   -1.6364 N   0  0  0  0  0  0  0  0  0  0  0  0
   -1.9227    4.5233   -0.9696 C   0  0  0  0  0  0  0  0  0  0  0  0
   -1.8319    5.9812   -0.6492 C   0  0  0  0  0  0  0  0  0  0  0  0
   -0.8838    3.6551   -0.6205 C   0  0  0  0  0  0  0  0  0  0  0  0
   -0.9979    2.2957   -0.9524 C   0  0  0  0  0  0  0  0  0  0  0  0
   -2.1038    1.8716   -1.6241 N   0  0  0  0  0  0  0  0  0  0  0  0
    0.0423    1.3504   -0.6259 N   0  0  0  0  0  0  0  0  0  0  0  0
    0.2449    0.1937   -1.5108 C   0  0  0  0  0  0  0  0  0  0  0  0
    1.5611   -0.5267   -1.2077 C   0  0  0  0  0  0  0  0  0  0  0  0
    1.6693   -0.7995    0.2308 N   0  0  0  0  0  0  0  0  0  0  0  0
    1.2793    0.2346    1.2025 C   0  0  0  0  0  0  0  0  0  0  0  0
    0.9358    1.5659    0.5223 C   0  0  0  0  0  0  0  0  0  0  0  0
    2.2757   -2.0308    0.6787 C   0  0  0  0  0  0  0  0  0  0  0  0
    3.0660   -2.6419   -0.0916 O   0  0  0  0  0  0  0  0  0  0  0  0
    1.9273   -2.6285    2.0329 C   0  0  0  0  0  0  0  0  0  0  0  0
    0.4960   -3.2043    2.0320 C   0  0  0  0  0  0  0  0  0  0  0  0
    0.4097   -4.5329    1.2722 C   0  0  0  0  0  0  0  0  0  0  0  0
    1.3776   -5.5598    1.8655 C   0  0  0  0  0  0  0  0  0  0  0  0
    2.8179   -5.0415    1.8231 C   0  0  0  0  0  0  0  0  0  0  0  0
    2.9501   -3.6807    2.5292 C   0  0  0  0  0  0  0  0  0  0  0  0
   -6.0614    2.4561   -3.5698 H   0  0  0  0  0  0  0  0  0  0  0  0
   -5.7721    3.5318   -2.1480 H   0  0  0  0  0  0  0  0  0  0  0  0
   -4.9443    3.8662   -3.7306 H   0  0  0  0  0  0  0  0  0  0  0  0
   -1.0390    6.4499   -1.2690 H   0  0  0  0  0  0  0  0  0  0  0  0
   -1.5866    6.1187    0.4251 H   0  0  0  0  0  0  0  0  0  0  0  0
   -2.7982    6.4871   -0.8593 H   0  0  0  0  0  0  0  0  0  0  0  0
   -0.0030    4.0400   -0.1224 H   0  0  0  0  0  0  0  0  0  0  0  0
    0.2632    0.5304   -2.5704 H   0  0  0  0  0  0  0  0  0  0  0  0
   -0.6003   -0.5168   -1.3810 H   0  0  0  0  0  0  0  0  0  0  0  0
    1.5854   -1.4713   -1.7941 H   0  0  0  0  0  0  0  0  0  0  0  0
    2.4185    0.1046   -1.5267 H   0  0  0  0  0  0  0  0  0  0  0  0
    0.3932   -0.1149    1.7741 H   0  0  0  0  0  0  0  0  0  0  0  0
    2.1139    0.4138    1.9146 H   0  0  0  0  0  0  0  0  0  0  0  0
    0.4532    2.2194    1.2810 H   0  0  0  0  0  0  0  0  0  0  0  0
    1.8672    2.0610    0.1719 H   0  0  0  0  0  0  0  0  0  0  0  0
    1.9526   -1.8065    2.7790 H   0  0  0  0  0  0  0  0  0  0  0  0
    0.1692   -3.3674    3.0829 H   0  0  0  0  0  0  0  0  0  0  0  0
   -0.2137   -2.4790    1.5788 H   0  0  0  0  0  0  0  0  0  0  0  0
   -0.6272   -4.9265    1.3420 H   0  0  0  0  0  0  0  0  0  0  0  0
    0.6413   -4.3712    0.1966 H   0  0  0  0  0  0  0  0  0  0  0  0
    1.0906   -5.7827    2.9168 H   0  0  0  0  0  0  0  0  0  0  0  0
    1.3110   -6.5049    1.2847 H   0  0  0  0  0  0  0  0  0  0  0  0
    3.4811   -5.7761    2.3285 H   0  0  0  0  0  0  0  0  0  0  0  0
    3.1548   -4.9691    0.7682 H   0  0  0  0  0  0  0  0  0  0  0  0
    2.7963   -3.8376    3.6199 H   0  0  0  0  0  0  0  0  0  0  0  0
    3.9849   -3.2951    2.4004 H   0  0  0  0  0  0  0  0  0  0  0  0
  1  2  1  0
  2  3  1  0
  3  4  2  0
  4  5  1  0
  5  6  1  0
  5  7  2  0
  7  8  1  0
  8  9  2  0
  8 10  1  0
 10 11  1  0
 11 12  1  0
 12 13  1  0
 13 14  1  0
 14 15  1  0
 13 16  1  0
 16 17  2  0
 16 18  1  0
 18 19  1  0
 19 20  1  0
 20 21  1  0
 21 22  1  0
 22 23  1  0
  3  9  1  0
 15 10  1  0
 23 18  1  0
  1 24  1  0
  1 25  1  0
  1 26  1  0
  6 27  1  0
  6 28  1  0
  6 29  1  0
  7 30  1  0
 11 31  1  0
 11 32  1  0
 12 33  1  0
 12 34  1  0
 14 35  1  0
 14 36  1  0
 15 37  1  0
 15 38  1  0
 18 39  1  0
 19 40  1  0
 19 41  1  0
 20 42  1  0
 20 43  1  0
 21 44  1  0
 21 45  1  0
 22 46  1  0
 22 47  1  0
 23 48  1  0
 23 49  1  0
M  END
$$$$
