
     RDKit          3D

 40 42  0  0  0  0  0  0  0  0999 V2000
    2.1939    1.3996   -4.1750 O   0  0  0  0  0  0  0  0  0  0  0  0
    2.0925    0.2601   -4.7028 C   0  0  0  0  0  0  0  0  0  0  0  0
    2.1804    0.0246   -6.1734 C   0  0  0  0  0  0  0  0  0  0  0  0
    2.0135   -1.5003   -6.3154 C   0  0  0  0  0  0  0  0  0  0  0  0
    1.8245   -1.9746   -4.9130 C   0  0  0  0  0  0  0  0  0  0  0  0
    1.5629   -3.1709   -4.6185 O   0  0  0  0  0  0  0  0  0  0  0  0
    1.9028   -0.9298   -3.9534 N   0  0  0  0  0  0  0  0  0  0  0  0
    1.6935   -1.0160   -2.5321 C   0  0  0  0  0  0  0  0  0  0  0  0
    2.0300   -2.1762   -1.8159 C   0  0  0  0  0  0  0  0  0  0  0  0
    1.8158   -2.2209   -0.4371 C   0  0  0  0  0  0  0  0  0  0  0  0
    1.2737   -1.1132    0.2224 C   0  0  0  0  0  0  0  0  0  0  0  0
    0.9686    0.0326   -0.5191 C   0  0  0  0  0  0  0  0  0  0  0  0
    1.1835    0.0542   -1.8609 N   0  0  0  0  0  0  0  0  0  0  0  0
    0.9813   -1.1476    1.9587 S   0  0  0  0  0  0  0  0  0  0  0  0
    0.9266   -2.5691    2.4473 O   0  0  0  0  0  0  0  0  0  0  0  0
    2.1015   -0.4307    2.6576 O   0  0  0  0  0  0  0  0  0  0  0  0
   -0.5227   -0.3546    2.3183 N   0  0  0  0  0  0  0  0  0  0  0  0
   -1.6382   -1.1317    1.7699 C   0  0  0  0  0  0  0  0  0  0  0  0
   -2.9467   -0.3215    1.8602 C   0  0  0  0  0  0  0  0  0  0  0  0
   -2.9296    0.8912    0.9653 C   0  0  0  0  0  0  0  0  0  0  0  0
   -3.5584    0.3882   -0.3209 C   0  0  0  0  0  0  0  0  0  0  0  0
   -4.2809   -0.7956   -0.0644 O   0  0  0  0  0  0  0  0  0  0  0  0
   -4.1260   -1.1045    1.3015 C   0  0  0  0  0  0  0  0  0  0  0  0
    1.3628    0.5649   -6.6971 H   0  0  0  0  0  0  0  0  0  0  0  0
    3.1699    0.3539   -6.5567 H   0  0  0  0  0  0  0  0  0  0  0  0
    2.9235   -1.9616   -6.7554 H   0  0  0  0  0  0  0  0  0  0  0  0
    1.1199   -1.7465   -6.9283 H   0  0  0  0  0  0  0  0  0  0  0  0
    2.4774   -3.0291   -2.3068 H   0  0  0  0  0  0  0  0  0  0  0  0
    2.0784   -3.1152    0.1133 H   0  0  0  0  0  0  0  0  0  0  0  0
    0.5583    0.9075   -0.0325 H   0  0  0  0  0  0  0  0  0  0  0  0
   -0.6184   -0.3361    3.3600 H   0  0  0  0  0  0  0  0  0  0  0  0
   -1.4444   -1.3939    0.7058 H   0  0  0  0  0  0  0  0  0  0  0  0
   -1.7518   -2.0784    2.3449 H   0  0  0  0  0  0  0  0  0  0  0  0
   -3.1350   -0.0340    2.9190 H   0  0  0  0  0  0  0  0  0  0  0  0
   -3.5693    1.6881    1.4059 H   0  0  0  0  0  0  0  0  0  0  0  0
   -1.9113    1.3024    0.7921 H   0  0  0  0  0  0  0  0  0  0  0  0
   -4.2379    1.1564   -0.7482 H   0  0  0  0  0  0  0  0  0  0  0  0
   -2.7635    0.1668   -1.0658 H   0  0  0  0  0  0  0  0  0  0  0  0
   -5.0552   -0.8120    1.8382 H   0  0  0  0  0  0  0  0  0  0  0  0
   -3.9949   -2.2011    1.4257 H   0  0  0  0  0  0  0  0  0  0  0  0
  1  2  2  0
  2  3  1  0
  3  4  1  0
  4  5  1  0
  5  6  2  0
  5  7  1  0
  7  8  1  0
  8  9  2  0
  9 10  1  0
 10 11  2  0
 11 12  1  0
 12 13  2  0
 11 14  1  0
 14 15  2  0
 14 16  2  0
 14 17  1  0
 17 18  1  0
 18 19  1  0
 19 20  1  0
 20 21  1  0
 21 22  1  0
 22 23  1  0
  7  2  1  0
  8 13  1  0
 23 19  1  0
  3 24  1  0
  3 25  1  0
  4 26  1  0
  4 27  1  0
  9 28  1  0
 10 29  1  0
 12 30  1  0
 17 31  1  0
 18 32  1  0
 18 33  1  0
 19 34  1  0
 20 35  1  0
 20 36  1  0
 21 37  1  0
 21 38  1  0
 23 39  1  0
 23 40  1  0
M  END
$$$$
