
     RDKit          3D

 44 47  0  0  0  0  0  0  0  0999 V2000
    1.1597    0.9679   -5.0795 O   0  0  0  0  0  0  0  0  0  0  0  0
    1.3715   -0.0206   -4.3246 C   0  0  0  0  0  0  0  0  0  0  0  0
    2.7368   -0.6521   -4.3813 C   0  0  0  0  0  0  0  0  0  0  0  0
    3.9255    0.3043   -3.3756 S   0  0  0  0  0  0  0  0  0  0  0  0
    3.4482   -0.4225   -1.8061 C   0  0  0  0  0  0  0  0  0  0  0  0
    4.0255   -1.6292   -1.3905 C   0  0  0  0  0  0  0  0  0  0  0  0
    3.6447   -2.2055   -0.1751 C   0  0  0  0  0  0  0  0  0  0  0  0
    2.6980   -1.5712    0.6346 C   0  0  0  0  0  0  0  0  0  0  0  0
    2.1332   -0.3562    0.2318 C   0  0  0  0  0  0  0  0  0  0  0  0
    0.8630    0.5194    1.3555 Br  0  0  0  0  0  0  0  0  0  0  0  0
    2.5073    0.2184   -0.9888 C   0  0  0  0  0  0  0  0  0  0  0  0
    0.3325   -0.4677   -3.4172 N   0  0  0  0  0  0  0  0  0  0  0  0
   -0.9221    0.3151   -3.3310 C   0  0  0  0  0  0  0  0  0  0  0  0
   -1.4516    0.3746   -1.8911 C   0  0  0  0  0  0  0  0  0  0  0  0
   -1.4312   -0.9940   -1.2907 C   0  0  0  0  0  0  0  0  0  0  0  0
   -0.6053   -1.9887   -1.7282 C   0  0  0  0  0  0  0  0  0  0  0  0
    0.3626   -1.8389   -2.8588 C   0  0  0  0  0  0  0  0  0  0  0  0
   -0.8062   -3.1101   -1.0104 N   0  0  0  0  0  0  0  0  0  0  0  0
   -1.7716   -2.7560   -0.1303 C   0  0  0  0  0  0  0  0  0  0  0  0
   -2.1683   -1.4691   -0.2677 N   0  0  0  0  0  0  0  0  0  0  0  0
   -3.1902   -0.8044    0.4987 C   0  0  0  0  0  0  0  0  0  0  0  0
   -4.3626   -1.4937    0.8559 C   0  0  0  0  0  0  0  0  0  0  0  0
   -5.3559   -0.8595    1.6082 C   0  0  0  0  0  0  0  0  0  0  0  0
   -5.1855    0.4653    2.0181 C   0  0  0  0  0  0  0  0  0  0  0  0
   -6.1487    1.0785    2.7491 F   0  0  0  0  0  0  0  0  0  0  0  0
   -4.0191    1.1557    1.6791 C   0  0  0  0  0  0  0  0  0  0  0  0
   -3.0241    0.5251    0.9260 C   0  0  0  0  0  0  0  0  0  0  0  0
    2.7379   -1.7225   -4.0996 H   0  0  0  0  0  0  0  0  0  0  0  0
    3.0931   -0.6195   -5.4326 H   0  0  0  0  0  0  0  0  0  0  0  0
    4.7574   -2.1267   -2.0139 H   0  0  0  0  0  0  0  0  0  0  0  0
    4.0840   -3.1432    0.1398 H   0  0  0  0  0  0  0  0  0  0  0  0
    2.4084   -2.0206    1.5757 H   0  0  0  0  0  0  0  0  0  0  0  0
    2.0637    1.1545   -1.3035 H   0  0  0  0  0  0  0  0  0  0  0  0
   -0.7732    1.3611   -3.6749 H   0  0  0  0  0  0  0  0  0  0  0  0
   -1.6863   -0.1538   -3.9886 H   0  0  0  0  0  0  0  0  0  0  0  0
   -0.7981    1.0431   -1.2921 H   0  0  0  0  0  0  0  0  0  0  0  0
   -2.4863    0.7784   -1.8944 H   0  0  0  0  0  0  0  0  0  0  0  0
    0.1171   -2.5702   -3.6574 H   0  0  0  0  0  0  0  0  0  0  0  0
    1.3593   -2.0756   -2.4448 H   0  0  0  0  0  0  0  0  0  0  0  0
   -2.1717   -3.4353    0.6115 H   0  0  0  0  0  0  0  0  0  0  0  0
   -4.5138   -2.5177    0.5391 H   0  0  0  0  0  0  0  0  0  0  0  0
   -6.2580   -1.3962    1.8721 H   0  0  0  0  0  0  0  0  0  0  0  0
   -3.8817    2.1787    2.0050 H   0  0  0  0  0  0  0  0  0  0  0  0
   -2.1192    1.0692    0.6995 H   0  0  0  0  0  0  0  0  0  0  0  0
  1  2  2  0
  2  3  1  0
  3  4  1  0
  4  5  1  0
  5  6  2  0
  6  7  1  0
  7  8  2  0
  8  9  1  0
  9 10  1  0
  9 11  2  0
  2 12  1  0
 12 13  1  0
 13 14  1  0
 14 15  1  0
 15 16  2  0
 16 17  1  0
 16 18  1  0
 18 19  2  0
 19 20  1  0
 20 21  1  0
 21 22  2  0
 22 23  1  0
 23 24  2  0
 24 25  1  0
 24 26  1  0
 26 27  2  0
  5 11  1  0
 17 12  1  0
 20 15  1  0
 21 27  1  0
  3 28  1  0
  3 29  1  0
  6 30  1  0
  7 31  1  0
  8 32  1  0
 11 33  1  0
 13 34  1  0
 13 35  1  0
 14 36  1  0
 14 37  1  0
 17 38  1  0
 17 39  1  0
 19 40  1  0
 22 41  1  0
 23 42  1  0
 26 43  1  0
 27 44  1  0
M  END
$$$$
