
     RDKit          3D

 49 51  0  0  0  0  0  0  0  0999 V2000
   -2.5684    0.0528    3.5513 C   0  0  0  0  0  0  0  0  0  0  0  0
   -3.2817    0.5187    2.2730 C   0  0  0  0  0  0  0  0  0  0  0  0
   -4.6744    0.4762    2.5042 O   0  0  0  0  0  0  0  0  0  0  0  0
   -5.1497    1.7948    2.4440 C   0  0  0  0  0  0  0  0  0  0  0  0
   -4.2512    2.5697    1.5148 C   0  0  0  0  0  0  0  0  0  0  0  0
   -2.8845    1.9320    1.7366 C   0  0  0  0  0  0  0  0  0  0  0  0
   -2.0739    2.8042    2.7269 C   0  0  0  0  0  0  0  0  0  0  0  0
   -2.1549    1.8394    0.4538 N   0  0  0  0  0  0  0  0  0  0  0  0
   -0.9061    1.1473    0.2779 C   0  0  0  0  0  0  0  0  0  0  0  0
   -0.3449    0.5821    1.2544 O   0  0  0  0  0  0  0  0  0  0  0  0
   -0.2876    1.0359   -1.0951 C   0  0  0  0  0  0  0  0  0  0  0  0
    1.2236    1.3847   -1.0675 C   0  0  0  0  0  0  0  0  0  0  0  0
    2.1143    0.1382   -1.0100 C   0  0  0  0  0  0  0  0  0  0  0  0
    1.8117   -0.7741   -2.1254 N   0  0  0  0  0  0  0  0  0  0  0  0
    0.4672   -0.7711   -2.7255 C   0  0  0  0  0  0  0  0  0  0  0  0
   -0.5801   -0.3623   -1.6875 C   0  0  0  0  0  0  0  0  0  0  0  0
    2.8118   -1.7133   -2.5785 C   0  0  0  0  0  0  0  0  0  0  0  0
    3.6446   -2.3626   -1.6484 C   0  0  0  0  0  0  0  0  0  0  0  0
    4.6061   -3.2830   -2.0742 C   0  0  0  0  0  0  0  0  0  0  0  0
    4.7543   -3.5651   -3.4358 C   0  0  0  0  0  0  0  0  0  0  0  0
    5.7448   -4.5137   -3.8729 C   0  0  0  0  0  0  0  0  0  0  0  0
    6.5403   -5.2778   -4.2236 N   0  0  0  0  0  0  0  0  0  0  0  0
    3.9386   -2.9210   -4.3713 C   0  0  0  0  0  0  0  0  0  0  0  0
    2.9740   -1.9992   -3.9506 C   0  0  0  0  0  0  0  0  0  0  0  0
    2.2269   -1.3651   -4.8877 F   0  0  0  0  0  0  0  0  0  0  0  0
   -2.8325    0.7055    4.4094 H   0  0  0  0  0  0  0  0  0  0  0  0
   -1.4689    0.0382    3.4217 H   0  0  0  0  0  0  0  0  0  0  0  0
   -2.8925   -0.9809    3.7978 H   0  0  0  0  0  0  0  0  0  0  0  0
   -3.0634   -0.2383    1.4878 H   0  0  0  0  0  0  0  0  0  0  0  0
   -5.1311    2.2412    3.4634 H   0  0  0  0  0  0  0  0  0  0  0  0
   -6.1967    1.8014    2.0721 H   0  0  0  0  0  0  0  0  0  0  0  0
   -4.6139    2.4064    0.4754 H   0  0  0  0  0  0  0  0  0  0  0  0
   -4.2822    3.6605    1.7342 H   0  0  0  0  0  0  0  0  0  0  0  0
   -1.8711    3.7998    2.2758 H   0  0  0  0  0  0  0  0  0  0  0  0
   -2.6348    2.9631    3.6723 H   0  0  0  0  0  0  0  0  0  0  0  0
   -1.0946    2.3443    2.9679 H   0  0  0  0  0  0  0  0  0  0  0  0
   -2.5510    2.3149   -0.3886 H   0  0  0  0  0  0  0  0  0  0  0  0
   -0.7728    1.7874   -1.7572 H   0  0  0  0  0  0  0  0  0  0  0  0
    1.4802    1.9427   -1.9955 H   0  0  0  0  0  0  0  0  0  0  0  0
    1.4661    2.0578   -0.2158 H   0  0  0  0  0  0  0  0  0  0  0  0
    1.9584   -0.3898   -0.0449 H   0  0  0  0  0  0  0  0  0  0  0  0
    3.1762    0.4639   -1.0663 H   0  0  0  0  0  0  0  0  0  0  0  0
    0.2113   -1.7874   -3.0979 H   0  0  0  0  0  0  0  0  0  0  0  0
    0.4422   -0.0618   -3.5805 H   0  0  0  0  0  0  0  0  0  0  0  0
   -0.5831   -1.1343   -0.8850 H   0  0  0  0  0  0  0  0  0  0  0  0
   -1.5887   -0.3652   -2.1562 H   0  0  0  0  0  0  0  0  0  0  0  0
    3.5421   -2.1679   -0.5886 H   0  0  0  0  0  0  0  0  0  0  0  0
    5.2344   -3.7738   -1.3410 H   0  0  0  0  0  0  0  0  0  0  0  0
    4.0519   -3.1289   -5.4291 H   0  0  0  0  0  0  0  0  0  0  0  0
  1  2  1  0
  2  3  1  0
  3  4  1  0
  4  5  1  0
  5  6  1  0
  6  7  1  0
  6  8  1  0
  8  9  1  0
  9 10  2  0
  9 11  1  0
 11 12  1  0
 12 13  1  0
 13 14  1  0
 14 15  1  0
 15 16  1  0
 14 17  1  0
 17 18  2  0
 18 19  1  0
 19 20  2  0
 20 21  1  0
 21 22  3  0
 20 23  1  0
 23 24  2  0
 24 25  1  0
  6  2  1  0
 16 11  1  0
 17 24  1  0
  1 26  1  0
  1 27  1  0
  1 28  1  0
  2 29  1  0
  4 30  1  0
  4 31  1  0
  5 32  1  0
  5 33  1  0
  7 34  1  0
  7 35  1  0
  7 36  1  0
  8 37  1  0
 11 38  1  0
 12 39  1  0
 12 40  1  0
 13 41  1  0
 13 42  1  0
 15 43  1  0
 15 44  1  0
 16 45  1  0
 16 46  1  0
 18 47  1  0
 19 48  1  0
 23 49  1  0
M  END
$$$$
