
     RDKit          3D

 47 50  0  0  0  0  0  0  0  0999 V2000
   -2.6995   -0.3603   -1.6970 C   0  0  0  0  0  0  0  0  0  0  0  0
   -1.9508    0.3030   -0.6869 O   0  0  0  0  0  0  0  0  0  0  0  0
   -1.7566    1.6877   -0.6779 C   0  0  0  0  0  0  0  0  0  0  0  0
   -2.2633    2.4123   -1.5776 O   0  0  0  0  0  0  0  0  0  0  0  0
   -0.9510    2.3190    0.4243 C   0  0  0  0  0  0  0  0  0  0  0  0
   -1.7251    2.2585    1.7562 C   0  0  0  0  0  0  0  0  0  0  0  0
   -1.6844    0.8740    2.3323 C   0  0  0  0  0  0  0  0  0  0  0  0
   -2.8120    0.3041    2.9423 C   0  0  0  0  0  0  0  0  0  0  0  0
   -2.7390   -0.9834    3.4819 C   0  0  0  0  0  0  0  0  0  0  0  0
   -1.5400   -1.6995    3.4263 C   0  0  0  0  0  0  0  0  0  0  0  0
   -0.4103   -1.1302    2.8310 C   0  0  0  0  0  0  0  0  0  0  0  0
   -0.4811    0.1564    2.2736 C   0  0  0  0  0  0  0  0  0  0  0  0
    0.7323    0.8023    1.6599 C   0  0  0  0  0  0  0  0  0  0  0  0
    0.3738    1.6617    0.5118 N   0  0  0  0  0  0  0  0  0  0  0  0
    1.3672    1.9653   -0.4960 C   0  0  0  0  0  0  0  0  0  0  0  0
    1.1886    2.9369   -1.2813 O   0  0  0  0  0  0  0  0  0  0  0  0
    2.6379    1.1612   -0.6098 C   0  0  0  0  0  0  0  0  0  0  0  0
    3.2083    1.0125   -2.0217 C   0  0  0  0  0  0  0  0  0  0  0  0
    2.5475   -0.1848   -1.3454 C   0  0  0  0  0  0  0  0  0  0  0  0
    1.2505   -0.6549   -2.0239 C   0  0  0  0  0  0  0  0  0  0  0  0
    0.6901   -1.8525   -1.2504 C   0  0  0  0  0  0  0  0  0  0  0  0
    1.6673   -2.8699   -1.1139 O   0  0  0  0  0  0  0  0  0  0  0  0
    2.7156   -2.4323   -0.2662 C   0  0  0  0  0  0  0  0  0  0  0  0
    3.5136   -1.2937   -0.9133 C   0  0  0  0  0  0  0  0  0  0  0  0
   -3.7442    0.0164   -1.7048 H   0  0  0  0  0  0  0  0  0  0  0  0
   -2.7111   -1.4490   -1.4847 H   0  0  0  0  0  0  0  0  0  0  0  0
   -2.2303   -0.1921   -2.6894 H   0  0  0  0  0  0  0  0  0  0  0  0
   -0.8085    3.3988    0.1939 H   0  0  0  0  0  0  0  0  0  0  0  0
   -1.2519    2.9525    2.4843 H   0  0  0  0  0  0  0  0  0  0  0  0
   -2.7734    2.5986    1.6020 H   0  0  0  0  0  0  0  0  0  0  0  0
   -3.7438    0.8528    2.9979 H   0  0  0  0  0  0  0  0  0  0  0  0
   -3.6106   -1.4242    3.9481 H   0  0  0  0  0  0  0  0  0  0  0  0
   -1.4844   -2.6938    3.8503 H   0  0  0  0  0  0  0  0  0  0  0  0
    0.5156   -1.6911    2.8037 H   0  0  0  0  0  0  0  0  0  0  0  0
    1.2441    1.4184    2.4289 H   0  0  0  0  0  0  0  0  0  0  0  0
    1.4322    0.0049    1.3426 H   0  0  0  0  0  0  0  0  0  0  0  0
    3.4053    1.2577    0.1875 H   0  0  0  0  0  0  0  0  0  0  0  0
    4.3188    0.9885   -2.0541 H   0  0  0  0  0  0  0  0  0  0  0  0
    2.6168    1.4795   -2.8389 H   0  0  0  0  0  0  0  0  0  0  0  0
    0.4830    0.1424   -2.0914 H   0  0  0  0  0  0  0  0  0  0  0  0
    1.4884   -0.9813   -3.0596 H   0  0  0  0  0  0  0  0  0  0  0  0
    0.2942   -1.5338   -0.2602 H   0  0  0  0  0  0  0  0  0  0  0  0
   -0.1684   -2.2672   -1.8189 H   0  0  0  0  0  0  0  0  0  0  0  0
    3.4028   -3.2866   -0.0910 H   0  0  0  0  0  0  0  0  0  0  0  0
    2.3277   -2.1272    0.7314 H   0  0  0  0  0  0  0  0  0  0  0  0
    4.2775   -0.9215   -0.1965 H   0  0  0  0  0  0  0  0  0  0  0  0
    4.0382   -1.6864   -1.8113 H   0  0  0  0  0  0  0  0  0  0  0  0
  1  2  1  0
  2  3  1  0
  3  4  2  0
  3  5  1  0
  5  6  1  0
  6  7  1  0
  7  8  2  0
  8  9  1  0
  9 10  2  0
 10 11  1  0
 11 12  2  0
 12 13  1  0
 13 14  1  0
 14 15  1  0
 15 16  2  0
 15 17  1  0
 17 18  1  0
 18 19  1  0
 19 20  1  0
 20 21  1  0
 21 22  1  0
 22 23  1  0
 23 24  1  0
 14  5  1  0
 12  7  1  0
 19 17  1  0
 24 19  1  0
  1 25  1  0
  1 26  1  0
  1 27  1  0
  5 28  1  0
  6 29  1  0
  6 30  1  0
  8 31  1  0
  9 32  1  0
 10 33  1  0
 11 34  1  0
 13 35  1  0
 13 36  1  0
 17 37  1  0
 18 38  1  0
 18 39  1  0
 20 40  1  0
 20 41  1  0
 21 42  1  0
 21 43  1  0
 23 44  1  0
 23 45  1  0
 24 46  1  0
 24 47  1  0
M  END
$$$$
