
     RDKit          3D

 39 42  0  0  0  0  0  0  0  0999 V2000
    0.0274   -2.0981   -3.3101 C   0  0  0  0  0  0  0  0  0  0  0  0
   -0.1745   -2.1627   -1.7957 C   0  0  1  0  0  0  0  0  0  0  0  0
   -1.5776   -1.8383   -1.4719 N   0  0  0  0  0  0  0  0  0  0  0  0
   -1.7954   -1.6143   -0.0349 C   0  0  0  0  0  0  0  0  0  0  0  0
   -1.2312   -0.2890    0.3872 C   0  0  0  0  0  0  0  0  0  0  0  0
   -1.8488    0.8589   -0.0198 N   0  0  0  0  0  0  0  0  0  0  0  0
   -1.3214    2.0525    0.3375 C   0  0  0  0  0  0  0  0  0  0  0  0
   -1.9219    3.5891   -0.0581 S   0  0  0  0  0  0  0  0  0  0  0  0
   -0.6667    4.3567    0.7748 C   0  0  0  0  0  0  0  0  0  0  0  0
   -0.3003    5.7621    1.0097 C   0  0  0  0  0  0  0  0  0  0  0  0
    0.9903    5.6333    1.8602 C   0  0  0  0  0  0  0  0  0  0  0  0
    1.2911    4.1231    2.0576 C   0  0  0  0  0  0  0  0  0  0  0  0
    0.1831    3.4689    1.3340 C   0  0  0  0  0  0  0  0  0  0  0  0
   -0.1683    2.1419    1.0987 C   0  0  0  0  0  0  0  0  0  0  0  0
    0.4627    0.9690    1.5055 C   0  0  0  0  0  0  0  0  0  0  0  0
    1.5167    1.0045    2.1957 O   0  0  0  0  0  0  0  0  0  0  0  0
   -0.0831   -0.2283    1.1388 N   0  0  0  0  0  0  0  0  0  0  0  0
    0.2240   -3.5224   -1.2737 C   0  0  0  0  0  0  0  0  0  0  0  0
    1.2281   -3.7668   -0.3447 C   0  0  0  0  0  0  0  0  0  0  0  0
    1.3665   -5.1236   -0.0296 C   0  0  0  0  0  0  0  0  0  0  0  0
    2.6557   -5.7745    1.2159 Br  0  0  0  0  0  0  0  0  0  0  0  0
    0.4787   -5.9529   -0.7022 C   0  0  0  0  0  0  0  0  0  0  0  0
   -0.4838   -4.9934   -1.6921 S   0  0  0  0  0  0  0  0  0  0  0  0
   -0.6312   -2.8285   -3.8273 H   0  0  0  0  0  0  0  0  0  0  0  0
    1.0856   -2.3203   -3.5663 H   0  0  0  0  0  0  0  0  0  0  0  0
   -0.2160   -1.0788   -3.6784 H   0  0  0  0  0  0  0  0  0  0  0  0
    0.4984   -1.3938   -1.3553 H   0  0  0  0  0  0  0  0  0  0  0  0
   -2.1964   -2.6254   -1.7794 H   0  0  0  0  0  0  0  0  0  0  0  0
   -2.8888   -1.6004    0.1659 H   0  0  0  0  0  0  0  0  0  0  0  0
   -1.3719   -2.4434    0.5731 H   0  0  0  0  0  0  0  0  0  0  0  0
   -1.1052    6.2812    1.5723 H   0  0  0  0  0  0  0  0  0  0  0  0
   -0.0985    6.2736    0.0445 H   0  0  0  0  0  0  0  0  0  0  0  0
    1.8403    6.1267    1.3403 H   0  0  0  0  0  0  0  0  0  0  0  0
    0.8466    6.1251    2.8470 H   0  0  0  0  0  0  0  0  0  0  0  0
    1.2661    3.8458    3.1331 H   0  0  0  0  0  0  0  0  0  0  0  0
    2.2657    3.8453    1.6022 H   0  0  0  0  0  0  0  0  0  0  0  0
    0.3899   -1.1124    1.4350 H   0  0  0  0  0  0  0  0  0  0  0  0
    1.8388   -2.9891    0.0949 H   0  0  0  0  0  0  0  0  0  0  0  0
    0.4162   -7.0282   -0.6038 H   0  0  0  0  0  0  0  0  0  0  0  0
  1  2  1  0
  2  3  1  0
  3  4  1  0
  4  5  1  0
  5  6  2  0
  6  7  1  0
  7  8  1  0
  8  9  1  0
  9 10  1  0
 10 11  1  0
 11 12  1  0
 12 13  1  0
 13 14  1  0
 14 15  1  0
 15 16  2  0
 15 17  1  0
  2 18  1  0
 18 19  2  0
 19 20  1  0
 20 21  1  0
 20 22  2  0
 22 23  1  0
 17  5  1  0
  7 14  2  0
  9 13  2  0
 23 18  1  0
  1 24  1  0
  1 25  1  0
  1 26  1  0
  2 27  1  1
  3 28  1  0
  4 29  1  0
  4 30  1  0
 10 31  1  0
 10 32  1  0
 11 33  1  0
 11 34  1  0
 12 35  1  0
 12 36  1  0
 17 37  1  0
 19 38  1  0
 22 39  1  0
M  END
$$$$
