
     RDKit          3D

 45 47  0  0  0  0  0  0  0  0999 V2000
    0.5437   -4.9740    0.7630 C   0  0  0  0  0  0  0  0  0  0  0  0
    1.2533   -3.6673    1.1387 C   0  0  0  0  0  0  0  0  0  0  0  0
    0.3122   -2.5425    1.0527 N   0  0  0  0  0  0  0  0  0  0  0  0
    0.2382   -1.5113    2.0522 C   0  0  0  0  0  0  0  0  0  0  0  0
    0.7362   -1.7113    3.1939 O   0  0  0  0  0  0  0  0  0  0  0  0
   -0.4307   -0.2179    1.7703 C   0  0  0  0  0  0  0  0  0  0  0  0
   -0.5696    0.2581    0.4538 C   0  0  0  0  0  0  0  0  0  0  0  0
   -1.1880    1.4866    0.2051 C   0  0  0  0  0  0  0  0  0  0  0  0
   -1.6629    2.2711    1.2697 C   0  0  0  0  0  0  0  0  0  0  0  0
   -1.5370    1.7954    2.5781 C   0  0  0  0  0  0  0  0  0  0  0  0
   -0.9174    0.5681    2.8301 C   0  0  0  0  0  0  0  0  0  0  0  0
   -2.3021    3.5015    1.0579 O   0  0  0  0  0  0  0  0  0  0  0  0
   -2.0266    4.3908    0.0086 C   0  0  0  0  0  0  0  0  0  0  0  0
   -3.0569    5.2122   -0.4653 C   0  0  0  0  0  0  0  0  0  0  0  0
   -2.8177    6.1219   -1.5000 C   0  0  0  0  0  0  0  0  0  0  0  0
   -1.5405    6.2260   -2.0605 C   0  0  0  0  0  0  0  0  0  0  0  0
   -1.2406    7.3688   -3.3570 Cl  0  0  0  0  0  0  0  0  0  0  0  0
   -0.5006    5.4239   -1.5793 C   0  0  0  0  0  0  0  0  0  0  0  0
   -0.7384    4.5136   -0.5449 C   0  0  0  0  0  0  0  0  0  0  0  0
    2.5169   -3.4231    0.2647 C   0  0  0  0  0  0  0  0  0  0  0  0
    2.2143   -3.0851   -1.1970 C   0  0  0  0  0  0  0  0  0  0  0  0
    2.5974   -1.6190   -1.3711 C   0  0  0  0  0  0  0  0  0  0  0  0
    2.9349   -1.0814   -0.0552 N   0  0  0  0  0  0  0  0  0  0  0  0
    3.3302   -2.2273    0.7550 C   0  0  0  0  0  0  0  0  0  0  0  0
    1.2453   -5.8309    0.8486 H   0  0  0  0  0  0  0  0  0  0  0  0
   -0.3059   -5.1498    1.4566 H   0  0  0  0  0  0  0  0  0  0  0  0
    0.1464   -4.9376   -0.2723 H   0  0  0  0  0  0  0  0  0  0  0  0
    1.5903   -3.7983    2.1909 H   0  0  0  0  0  0  0  0  0  0  0  0
   -0.2998   -2.4736    0.2094 H   0  0  0  0  0  0  0  0  0  0  0  0
   -0.1886   -0.3041   -0.3870 H   0  0  0  0  0  0  0  0  0  0  0  0
   -1.3062    1.8172   -0.8184 H   0  0  0  0  0  0  0  0  0  0  0  0
   -1.9131    2.3844    3.4050 H   0  0  0  0  0  0  0  0  0  0  0  0
   -0.8285    0.2290    3.8548 H   0  0  0  0  0  0  0  0  0  0  0  0
   -4.0477    5.1391   -0.0351 H   0  0  0  0  0  0  0  0  0  0  0  0
   -3.6245    6.7457   -1.8635 H   0  0  0  0  0  0  0  0  0  0  0  0
    0.4930    5.5100   -2.0006 H   0  0  0  0  0  0  0  0  0  0  0  0
    0.0842    3.9218   -0.1655 H   0  0  0  0  0  0  0  0  0  0  0  0
    3.1576   -4.3328    0.3140 H   0  0  0  0  0  0  0  0  0  0  0  0
    2.8352   -3.7178   -1.8691 H   0  0  0  0  0  0  0  0  0  0  0  0
    1.1507   -3.2410   -1.4719 H   0  0  0  0  0  0  0  0  0  0  0  0
    1.7512   -1.0421   -1.8006 H   0  0  0  0  0  0  0  0  0  0  0  0
    3.4693   -1.5348   -2.0595 H   0  0  0  0  0  0  0  0  0  0  0  0
    3.7478   -0.4274   -0.1451 H   0  0  0  0  0  0  0  0  0  0  0  0
    3.1652   -2.0086    1.8313 H   0  0  0  0  0  0  0  0  0  0  0  0
    4.4158   -2.4352    0.6101 H   0  0  0  0  0  0  0  0  0  0  0  0
  1  2  1  0
  2  3  1  0
  3  4  1  0
  4  5  2  0
  4  6  1  0
  6  7  2  0
  7  8  1  0
  8  9  2  0
  9 10  1  0
 10 11  2  0
  9 12  1  0
 12 13  1  0
 13 14  2  0
 14 15  1  0
 15 16  2  0
 16 17  1  0
 16 18  1  0
 18 19  2  0
  2 20  1  0
 20 21  1  0
 21 22  1  0
 22 23  1  0
 23 24  1  0
  6 11  1  0
 13 19  1  0
 24 20  1  0
  1 25  1  0
  1 26  1  0
  1 27  1  0
  2 28  1  0
  3 29  1  0
  7 30  1  0
  8 31  1  0
 10 32  1  0
 11 33  1  0
 14 34  1  0
 15 35  1  0
 18 36  1  0
 19 37  1  0
 20 38  1  0
 21 39  1  0
 21 40  1  0
 22 41  1  0
 22 42  1  0
 23 43  1  0
 24 44  1  0
 24 45  1  0
M  END
$$$$
