
     RDKit          3D

 38 40  0  0  0  0  0  0  0  0999 V2000
    0.5360   -3.0640    2.1522 O   0  0  0  0  0  0  0  0  0  0  0  0
   -0.1155   -2.3310    1.3586 C   0  0  0  0  0  0  0  0  0  0  0  0
    0.1959   -2.3508   -0.0411 N   0  0  0  0  0  0  0  0  0  0  0  0
    1.4735   -2.8639   -0.5376 C   0  0  0  0  0  0  0  0  0  0  0  0
    1.7569   -2.3626   -1.9586 C   0  0  0  0  0  0  0  0  0  0  0  0
    1.9036   -0.8691   -1.9788 C   0  0  0  0  0  0  0  0  0  0  0  0
    3.1266   -0.2219   -1.8251 C   0  0  0  0  0  0  0  0  0  0  0  0
    2.8247    1.4308   -1.7839 S   0  0  0  0  0  0  0  0  0  0  0  0
    1.1563    1.2583   -1.9550 C   0  0  0  0  0  0  0  0  0  0  0  0
    0.8202   -0.0480   -2.0428 N   0  0  0  0  0  0  0  0  0  0  0  0
    0.1635    2.3566   -1.9589 C   0  0  0  0  0  0  0  0  0  0  0  0
   -1.2108    2.0653   -2.0473 C   0  0  0  0  0  0  0  0  0  0  0  0
   -2.1557    3.0956   -2.0350 C   0  0  0  0  0  0  0  0  0  0  0  0
   -1.7412    4.4254   -1.9373 C   0  0  0  0  0  0  0  0  0  0  0  0
   -0.3804    4.7276   -1.8519 C   0  0  0  0  0  0  0  0  0  0  0  0
    0.5692    3.7010   -1.8619 C   0  0  0  0  0  0  0  0  0  0  0  0
   -1.1946   -1.4609    1.8825 C   0  0  0  0  0  0  0  0  0  0  0  0
   -1.8218   -1.7675    3.1038 C   0  0  0  0  0  0  0  0  0  0  0  0
   -2.8337   -0.9435    3.6065 C   0  0  0  0  0  0  0  0  0  0  0  0
   -3.2240    0.1982    2.9021 C   0  0  0  0  0  0  0  0  0  0  0  0
   -4.2042    0.9951    3.3951 F   0  0  0  0  0  0  0  0  0  0  0  0
   -2.5991    0.5207    1.6942 C   0  0  0  0  0  0  0  0  0  0  0  0
   -2.9661    1.6363    1.0158 F   0  0  0  0  0  0  0  0  0  0  0  0
   -1.5879   -0.3014    1.1869 C   0  0  0  0  0  0  0  0  0  0  0  0
   -0.5183   -2.0078   -0.7224 H   0  0  0  0  0  0  0  0  0  0  0  0
    1.4443   -3.9744   -0.5359 H   0  0  0  0  0  0  0  0  0  0  0  0
    2.2986   -2.5361    0.1330 H   0  0  0  0  0  0  0  0  0  0  0  0
    0.9309   -2.6660   -2.6376 H   0  0  0  0  0  0  0  0  0  0  0  0
    2.6904   -2.8357   -2.3332 H   0  0  0  0  0  0  0  0  0  0  0  0
    4.0941   -0.6963   -1.7274 H   0  0  0  0  0  0  0  0  0  0  0  0
   -1.5567    1.0419   -2.1215 H   0  0  0  0  0  0  0  0  0  0  0  0
   -3.2106    2.8620   -2.0999 H   0  0  0  0  0  0  0  0  0  0  0  0
   -2.4742    5.2216   -1.9277 H   0  0  0  0  0  0  0  0  0  0  0  0
   -0.0604    5.7588   -1.7763 H   0  0  0  0  0  0  0  0  0  0  0  0
    1.6168    3.9630   -1.7924 H   0  0  0  0  0  0  0  0  0  0  0  0
   -1.5369   -2.6491    3.6646 H   0  0  0  0  0  0  0  0  0  0  0  0
   -3.3146   -1.1914    4.5440 H   0  0  0  0  0  0  0  0  0  0  0  0
   -1.1003   -0.0140    0.2652 H   0  0  0  0  0  0  0  0  0  0  0  0
  1  2  2  0
  2  3  1  0
  3  4  1  0
  4  5  1  0
  5  6  1  0
  6  7  2  0
  7  8  1  0
  8  9  1  0
  9 10  2  0
  9 11  1  0
 11 12  2  0
 12 13  1  0
 13 14  2  0
 14 15  1  0
 15 16  2  0
  2 17  1  0
 17 18  2  0
 18 19  1  0
 19 20  2  0
 20 21  1  0
 20 22  1  0
 22 23  1  0
 22 24  2  0
 10  6  1  0
 11 16  1  0
 24 17  1  0
  3 25  1  0
  4 26  1  0
  4 27  1  0
  5 28  1  0
  5 29  1  0
  7 30  1  0
 12 31  1  0
 13 32  1  0
 14 33  1  0
 15 34  1  0
 16 35  1  0
 18 36  1  0
 19 37  1  0
 24 38  1  0
M  END
$$$$
