
     RDKit          3D

 42 43  0  0  0  0  0  0  0  0999 V2000
    0.2261   -3.6211   -4.8332 C   0  0  0  0  0  0  0  0  0  0  0  0
    1.5584   -2.9591   -5.1801 C   0  0  0  0  0  0  0  0  0  0  0  0
    1.5022   -1.4354   -5.0161 C   0  0  0  0  0  0  0  0  0  0  0  0
    1.2628   -1.0626   -3.6228 N   0  0  0  0  0  0  0  0  0  0  0  0
    2.2749   -1.1683   -2.6092 C   0  0  0  0  0  0  0  0  0  0  0  0
    3.4448   -1.5236   -2.9184 O   0  0  0  0  0  0  0  0  0  0  0  0
    1.9595   -0.8379   -1.1714 C   0  0  0  0  0  0  0  0  0  0  0  0
    0.7838   -1.7022   -0.6339 C   0  0  0  0  0  0  0  0  0  0  0  0
   -0.4572   -0.8753   -0.2801 C   0  0  0  0  0  0  0  0  0  0  0  0
   -0.0873    0.2312    0.6157 N   0  0  0  0  0  0  0  0  0  0  0  0
    1.1331    1.0097    0.3593 C   0  0  0  0  0  0  0  0  0  0  0  0
    1.7282    0.6799   -1.0138 C   0  0  0  0  0  0  0  0  0  0  0  0
   -0.8636    0.5210    1.7945 C   0  0  0  0  0  0  0  0  0  0  0  0
   -0.2754    0.9108    2.8402 O   0  0  0  0  0  0  0  0  0  0  0  0
   -2.3381    0.3824    1.8096 C   0  0  0  0  0  0  0  0  0  0  0  0
   -2.9997    0.0126    2.9936 C   0  0  0  0  0  0  0  0  0  0  0  0
   -4.3922   -0.1107    3.0158 C   0  0  0  0  0  0  0  0  0  0  0  0
   -5.1372    0.1439    1.8620 C   0  0  0  0  0  0  0  0  0  0  0  0
   -4.4913    0.5295    0.6835 C   0  0  0  0  0  0  0  0  0  0  0  0
   -5.4286    0.8665   -0.7604 Cl  0  0  0  0  0  0  0  0  0  0  0  0
   -3.0977    0.6543    0.6577 C   0  0  0  0  0  0  0  0  0  0  0  0
    0.2999   -4.7154   -5.0065 H   0  0  0  0  0  0  0  0  0  0  0  0
   -0.0274   -3.4504   -3.7656 H   0  0  0  0  0  0  0  0  0  0  0  0
   -0.5858   -3.2145   -5.4730 H   0  0  0  0  0  0  0  0  0  0  0  0
    1.8098   -3.1955   -6.2365 H   0  0  0  0  0  0  0  0  0  0  0  0
    2.3590   -3.3837   -4.5377 H   0  0  0  0  0  0  0  0  0  0  0  0
    2.4560   -0.9843   -5.3654 H   0  0  0  0  0  0  0  0  0  0  0  0
    0.6881   -1.0265   -5.6537 H   0  0  0  0  0  0  0  0  0  0  0  0
    0.3246   -0.6792   -3.3704 H   0  0  0  0  0  0  0  0  0  0  0  0
    2.8568   -1.0923   -0.5618 H   0  0  0  0  0  0  0  0  0  0  0  0
    1.1176   -2.2256    0.2894 H   0  0  0  0  0  0  0  0  0  0  0  0
    0.4945   -2.4969   -1.3563 H   0  0  0  0  0  0  0  0  0  0  0  0
   -0.9115   -0.4671   -1.2077 H   0  0  0  0  0  0  0  0  0  0  0  0
   -1.2009   -1.5452    0.2042 H   0  0  0  0  0  0  0  0  0  0  0  0
    1.8840    0.7911    1.1494 H   0  0  0  0  0  0  0  0  0  0  0  0
    0.8940    2.0949    0.3922 H   0  0  0  0  0  0  0  0  0  0  0  0
    2.6921    1.2205   -1.1366 H   0  0  0  0  0  0  0  0  0  0  0  0
    1.0319    1.0524   -1.7971 H   0  0  0  0  0  0  0  0  0  0  0  0
   -2.4385   -0.1929    3.8968 H   0  0  0  0  0  0  0  0  0  0  0  0
   -4.8940   -0.4041    3.9288 H   0  0  0  0  0  0  0  0  0  0  0  0
   -6.2152    0.0473    1.8863 H   0  0  0  0  0  0  0  0  0  0  0  0
   -2.6140    0.9822   -0.2534 H   0  0  0  0  0  0  0  0  0  0  0  0
  1  2  1  0
  2  3  1  0
  3  4  1  0
  4  5  1  0
  5  6  2  0
  5  7  1  0
  7  8  1  0
  8  9  1  0
  9 10  1  0
 10 11  1  0
 11 12  1  0
 10 13  1  0
 13 14  2  0
 13 15  1  0
 15 16  2  0
 16 17  1  0
 17 18  2  0
 18 19  1  0
 19 20  1  0
 19 21  2  0
 12  7  1  0
 15 21  1  0
  1 22  1  0
  1 23  1  0
  1 24  1  0
  2 25  1  0
  2 26  1  0
  3 27  1  0
  3 28  1  0
  4 29  1  0
  7 30  1  0
  8 31  1  0
  8 32  1  0
  9 33  1  0
  9 34  1  0
 11 35  1  0
 11 36  1  0
 12 37  1  0
 12 38  1  0
 16 39  1  0
 17 40  1  0
 18 41  1  0
 21 42  1  0
M  END
$$$$
