
     RDKit          3D

 43 46  0  0  0  0  0  0  0  0999 V2000
    4.8685   -2.5876   -4.3740 C   0  0  0  0  0  0  0  0  0  0  0  0
    4.5440   -2.1753   -3.0114 N   0  0  0  0  0  0  0  0  0  0  0  0
    5.3842   -2.0705   -1.9518 C   0  0  0  0  0  0  0  0  0  0  0  0
    6.6020   -2.3904   -1.9965 O   0  0  0  0  0  0  0  0  0  0  0  0
    4.7826   -1.5645   -0.8464 N   0  0  0  0  0  0  0  0  0  0  0  0
    5.3953   -1.2377    0.4384 C   0  0  0  0  0  0  0  0  0  0  0  0
    3.5221   -1.3055   -1.2471 C   0  0  0  0  0  0  0  0  0  0  0  0
    2.4833   -0.7129   -0.5310 C   0  0  0  0  0  0  0  0  0  0  0  0
    1.2528   -0.4995   -1.1922 C   0  0  0  0  0  0  0  0  0  0  0  0
    1.1099   -0.8778   -2.5602 C   0  0  0  0  0  0  0  0  0  0  0  0
   -0.5207   -0.5922   -3.5360 Br  0  0  0  0  0  0  0  0  0  0  0  0
    2.1867   -1.4688   -3.2503 C   0  0  0  0  0  0  0  0  0  0  0  0
    3.3781   -1.6729   -2.5571 C   0  0  0  0  0  0  0  0  0  0  0  0
   -0.0829    0.2474   -0.3074 S   0  0  0  0  0  0  0  0  0  0  0  0
    0.3241    0.5242    1.1134 O   0  0  0  0  0  0  0  0  0  0  0  0
   -0.4427    1.5412   -0.9823 O   0  0  0  0  0  0  0  0  0  0  0  0
   -1.4446   -0.8296   -0.3077 N   0  0  0  0  0  0  0  0  0  0  0  0
   -2.7924   -0.3957   -0.0672 C   0  0  0  0  0  0  0  0  0  0  0  0
   -3.0724    0.8122    0.6216 C   0  0  0  0  0  0  0  0  0  0  0  0
   -4.4002    1.2260    0.8249 C   0  0  0  0  0  0  0  0  0  0  0  0
   -5.4314    0.4202    0.3430 C   0  0  0  0  0  0  0  0  0  0  0  0
   -6.9014    0.6579    0.4053 C   0  0  0  0  0  0  0  0  0  0  0  0
   -7.4929   -0.5774   -0.3214 C   0  0  0  0  0  0  0  0  0  0  0  0
   -6.3507   -1.3996   -0.7138 N   0  0  0  0  0  0  0  0  0  0  0  0
   -5.1669   -0.7527   -0.3016 C   0  0  0  0  0  0  0  0  0  0  0  0
   -3.8628   -1.1937   -0.5212 C   0  0  0  0  0  0  0  0  0  0  0  0
    5.7798   -3.2173   -4.3786 H   0  0  0  0  0  0  0  0  0  0  0  0
    5.0391   -1.6882   -5.0058 H   0  0  0  0  0  0  0  0  0  0  0  0
    4.0354   -3.1827   -4.8004 H   0  0  0  0  0  0  0  0  0  0  0  0
    6.3769   -1.7446    0.5424 H   0  0  0  0  0  0  0  0  0  0  0  0
    4.7370   -1.5755    1.2665 H   0  0  0  0  0  0  0  0  0  0  0  0
    5.5432   -0.1410    0.5105 H   0  0  0  0  0  0  0  0  0  0  0  0
    2.6272   -0.4183    0.5000 H   0  0  0  0  0  0  0  0  0  0  0  0
    2.0907   -1.7487   -4.2926 H   0  0  0  0  0  0  0  0  0  0  0  0
   -1.2801   -1.8051   -0.6400 H   0  0  0  0  0  0  0  0  0  0  0  0
   -2.2732    1.4314    1.0054 H   0  0  0  0  0  0  0  0  0  0  0  0
   -4.6162    2.1507    1.3420 H   0  0  0  0  0  0  0  0  0  0  0  0
   -7.2435    0.7037    1.4618 H   0  0  0  0  0  0  0  0  0  0  0  0
   -7.1620    1.5963   -0.1308 H   0  0  0  0  0  0  0  0  0  0  0  0
   -8.0593   -0.2669   -1.2266 H   0  0  0  0  0  0  0  0  0  0  0  0
   -8.1556   -1.1543    0.3582 H   0  0  0  0  0  0  0  0  0  0  0  0
   -6.4015   -2.3115   -1.2207 H   0  0  0  0  0  0  0  0  0  0  0  0
   -3.6826   -2.1225   -1.0477 H   0  0  0  0  0  0  0  0  0  0  0  0
  1  2  1  0
  2  3  1  0
  3  4  2  0
  3  5  1  0
  5  6  1  0
  5  7  1  0
  7  8  2  0
  8  9  1  0
  9 10  2  0
 10 11  1  0
 10 12  1  0
 12 13  2  0
  9 14  1  0
 14 15  2  0
 14 16  2  0
 14 17  1  0
 17 18  1  0
 18 19  2  0
 19 20  1  0
 20 21  2  0
 21 22  1  0
 22 23  1  0
 23 24  1  0
 24 25  1  0
 25 26  2  0
 13  2  1  0
  7 13  1  0
 18 26  1  0
 21 25  1  0
  1 27  1  0
  1 28  1  0
  1 29  1  0
  6 30  1  0
  6 31  1  0
  6 32  1  0
  8 33  1  0
 12 34  1  0
 17 35  1  0
 19 36  1  0
 20 37  1  0
 22 38  1  0
 22 39  1  0
 23 40  1  0
 23 41  1  0
 24 42  1  0
 26 43  1  0
M  END
$$$$
