
     RDKit          3D

 44 47  0  0  0  0  0  0  0  0999 V2000
   -3.4650   -2.6890   -1.8009 C   0  0  0  0  0  0  0  0  0  0  0  0
   -2.3681   -2.1152   -0.9102 C   0  0  0  0  0  0  0  0  0  0  0  0
   -2.8909   -1.8265    0.4979 C   0  0  0  0  0  0  0  0  0  0  0  0
   -1.8090   -1.3222    1.3403 N   0  0  0  0  0  0  0  0  0  0  0  0
   -1.5020   -0.0333    1.4476 N   0  0  0  0  0  0  0  0  0  0  0  0
   -0.4211    0.0660    2.2575 C   0  0  0  0  0  0  0  0  0  0  0  0
    0.2212    1.2997    2.6019 N   0  0  0  0  0  0  0  0  0  0  0  0
   -0.1201    2.5568    1.9444 C   0  0  0  0  0  0  0  0  0  0  0  0
    0.5274    2.6169    0.5994 C   0  0  0  0  0  0  0  0  0  0  0  0
    0.1498    1.8655   -0.4523 N   0  0  0  0  0  0  0  0  0  0  0  0
    1.0409    2.2566   -1.3862 C   0  0  0  0  0  0  0  0  0  0  0  0
    1.1257    1.6495   -2.7479 C   0  0  0  0  0  0  0  0  0  0  0  0
    2.0466    0.4253   -2.7080 C   0  0  0  0  0  0  0  0  0  0  0  0
    1.7938   -0.6076   -3.7952 C   0  0  0  0  0  0  0  0  0  0  0  0
    1.3731   -0.8943   -2.3620 C   0  0  0  0  0  0  0  0  0  0  0  0
    1.9125    3.1724   -0.9220 N   0  0  0  0  0  0  0  0  0  0  0  0
    1.5573    3.3726    0.3102 O   0  0  0  0  0  0  0  0  0  0  0  0
   -0.0324   -1.1947    2.6586 C   0  0  0  0  0  0  0  0  0  0  0  0
    1.0135   -1.6563    3.4555 C   0  0  0  0  0  0  0  0  0  0  0  0
    1.1300   -3.0475    3.6322 C   0  0  0  0  0  0  0  0  0  0  0  0
    0.2160   -3.9288    3.0100 C   0  0  0  0  0  0  0  0  0  0  0  0
   -0.8258   -3.4287    2.2058 C   0  0  0  0  0  0  0  0  0  0  0  0
   -0.9212   -2.0432    2.0567 C   0  0  0  0  0  0  0  0  0  0  0  0
   -4.3072   -1.9698   -1.8872 H   0  0  0  0  0  0  0  0  0  0  0  0
   -3.0566   -2.8813   -2.8151 H   0  0  0  0  0  0  0  0  0  0  0  0
   -3.8409   -3.6466   -1.3817 H   0  0  0  0  0  0  0  0  0  0  0  0
   -1.5279   -2.8410   -0.8561 H   0  0  0  0  0  0  0  0  0  0  0  0
   -1.9924   -1.1722   -1.3616 H   0  0  0  0  0  0  0  0  0  0  0  0
   -3.7002   -1.0653    0.4461 H   0  0  0  0  0  0  0  0  0  0  0  0
   -3.3232   -2.7472    0.9464 H   0  0  0  0  0  0  0  0  0  0  0  0
    1.0061    1.2934    3.2907 H   0  0  0  0  0  0  0  0  0  0  0  0
    0.2439    3.4057    2.5621 H   0  0  0  0  0  0  0  0  0  0  0  0
   -1.2221    2.6544    1.8441 H   0  0  0  0  0  0  0  0  0  0  0  0
    0.1015    1.3929   -3.0980 H   0  0  0  0  0  0  0  0  0  0  0  0
    1.5508    2.3928   -3.4554 H   0  0  0  0  0  0  0  0  0  0  0  0
    3.1068    0.5288   -2.3913 H   0  0  0  0  0  0  0  0  0  0  0  0
    2.6957   -1.1692   -4.1178 H   0  0  0  0  0  0  0  0  0  0  0  0
    0.9421   -0.4067   -4.4796 H   0  0  0  0  0  0  0  0  0  0  0  0
    0.2769   -0.8517   -2.1949 H   0  0  0  0  0  0  0  0  0  0  0  0
    2.0276   -1.6188   -1.8336 H   0  0  0  0  0  0  0  0  0  0  0  0
    1.7146   -0.9757    3.9201 H   0  0  0  0  0  0  0  0  0  0  0  0
    1.9281   -3.4455    4.2454 H   0  0  0  0  0  0  0  0  0  0  0  0
    0.3195   -4.9965    3.1505 H   0  0  0  0  0  0  0  0  0  0  0  0
   -1.5203   -4.1019    1.7217 H   0  0  0  0  0  0  0  0  0  0  0  0
  1  2  1  0
  2  3  1  0
  3  4  1  0
  4  5  1  0
  5  6  2  0
  6  7  1  0
  7  8  1  0
  8  9  1  0
  9 10  2  0
 10 11  1  0
 11 12  1  0
 12 13  1  0
 13 14  1  0
 14 15  1  0
 11 16  2  0
 16 17  1  0
  6 18  1  0
 18 19  2  0
 19 20  1  0
 20 21  2  0
 21 22  1  0
 22 23  2  0
 23  4  1  0
 17  9  1  0
 15 13  1  0
 18 23  1  0
  1 24  1  0
  1 25  1  0
  1 26  1  0
  2 27  1  0
  2 28  1  0
  3 29  1  0
  3 30  1  0
  7 31  1  0
  8 32  1  0
  8 33  1  0
 12 34  1  0
 12 35  1  0
 13 36  1  0
 14 37  1  0
 14 38  1  0
 15 39  1  0
 15 40  1  0
 19 41  1  0
 20 42  1  0
 21 43  1  0
 22 44  1  0
M  END
$$$$
