
     RDKit          3D

 55 58  0  0  0  0  0  0  0  0999 V2000
   -3.6521    1.4407    1.5222 O   0  0  0  0  0  0  0  0  0  0  0  0
   -2.5270    0.8773    1.4307 C   0  0  0  0  0  0  0  0  0  0  0  0
   -1.7186    0.7117    2.6070 N   0  0  0  0  0  0  0  0  0  0  0  0
   -2.2544    0.9419    3.9548 C   0  0  0  0  0  0  0  0  0  0  0  0
   -1.1503    0.8797    5.0117 C   0  0  0  0  0  0  0  0  0  0  0  0
   -1.0971   -0.5740    5.5008 C   0  0  0  0  0  0  0  0  0  0  0  0
    0.0368   -1.3979    4.8807 C   0  0  0  0  0  0  0  0  0  0  0  0
   -0.5320   -2.6599    4.4144 N   0  0  0  0  0  0  0  0  0  0  0  0
   -1.9273   -2.3665    4.1039 C   0  0  0  0  0  0  0  0  0  0  0  0
   -2.3790   -1.2442    5.0400 C   0  0  0  0  0  0  0  0  0  0  0  0
   -3.2227   -0.1719    4.3462 C   0  0  0  0  0  0  0  0  0  0  0  0
   -2.0536    0.4067    0.1076 C   0  0  0  0  0  0  0  0  0  0  0  0
   -2.5643    0.9811   -1.0687 C   0  0  0  0  0  0  0  0  0  0  0  0
   -2.1237    0.5439   -2.3207 C   0  0  0  0  0  0  0  0  0  0  0  0
   -1.1726   -0.4760   -2.4260 C   0  0  0  0  0  0  0  0  0  0  0  0
   -0.6749   -1.0706   -1.2512 C   0  0  0  0  0  0  0  0  0  0  0  0
   -1.1122   -0.6326    0.0024 C   0  0  0  0  0  0  0  0  0  0  0  0
   -0.7624   -0.8681   -3.7107 O   0  0  0  0  0  0  0  0  0  0  0  0
    0.2960   -1.7824   -4.0024 C   0  0  0  0  0  0  0  0  0  0  0  0
    1.6739   -1.1418   -3.7468 C   0  0  0  0  0  0  0  0  0  0  0  0
    2.7942   -2.1705   -3.9977 C   0  0  0  0  0  0  0  0  0  0  0  0
    4.1773   -1.5467   -3.7732 C   0  0  0  0  0  0  0  0  0  0  0  0
    4.3726   -0.3094   -4.6571 C   0  0  0  0  0  0  0  0  0  0  0  0
    3.2634    0.7202   -4.4125 C   0  0  0  0  0  0  0  0  0  0  0  0
    1.8778    0.1017   -4.6374 C   0  0  0  0  0  0  0  0  0  0  0  0
   -0.7053    0.4901    2.4872 H   0  0  0  0  0  0  0  0  0  0  0  0
   -2.7557    1.9347    3.9882 H   0  0  0  0  0  0  0  0  0  0  0  0
   -1.4429    1.5296    5.8662 H   0  0  0  0  0  0  0  0  0  0  0  0
   -0.1730    1.2531    4.6351 H   0  0  0  0  0  0  0  0  0  0  0  0
   -1.0215   -0.6058    6.6114 H   0  0  0  0  0  0  0  0  0  0  0  0
    0.5011   -0.8819    4.0136 H   0  0  0  0  0  0  0  0  0  0  0  0
    0.8385   -1.5840    5.6298 H   0  0  0  0  0  0  0  0  0  0  0  0
   -0.5190   -3.3328    5.2178 H   0  0  0  0  0  0  0  0  0  0  0  0
   -2.5597   -3.2716    4.2405 H   0  0  0  0  0  0  0  0  0  0  0  0
   -1.9919   -2.0612    3.0365 H   0  0  0  0  0  0  0  0  0  0  0  0
   -2.9286   -1.6759    5.9069 H   0  0  0  0  0  0  0  0  0  0  0  0
   -3.9562    0.2347    5.0772 H   0  0  0  0  0  0  0  0  0  0  0  0
   -3.7950   -0.5724    3.4810 H   0  0  0  0  0  0  0  0  0  0  0  0
   -3.2958    1.7784   -1.0209 H   0  0  0  0  0  0  0  0  0  0  0  0
   -2.5206    1.0050   -3.2164 H   0  0  0  0  0  0  0  0  0  0  0  0
    0.0436   -1.8766   -1.2905 H   0  0  0  0  0  0  0  0  0  0  0  0
   -0.7279   -1.1279    0.8846 H   0  0  0  0  0  0  0  0  0  0  0  0
    0.1708   -2.7140   -3.4104 H   0  0  0  0  0  0  0  0  0  0  0  0
    0.2195   -2.0697   -5.0730 H   0  0  0  0  0  0  0  0  0  0  0  0
    1.7279   -0.8239   -2.6826 H   0  0  0  0  0  0  0  0  0  0  0  0
    2.6734   -3.0310   -3.3039 H   0  0  0  0  0  0  0  0  0  0  0  0
    2.7306   -2.5577   -5.0393 H   0  0  0  0  0  0  0  0  0  0  0  0
    4.2910   -1.2639   -2.7033 H   0  0  0  0  0  0  0  0  0  0  0  0
    4.9613   -2.2964   -4.0140 H   0  0  0  0  0  0  0  0  0  0  0  0
    4.3736   -0.6108   -5.7279 H   0  0  0  0  0  0  0  0  0  0  0  0
    5.3578    0.1519   -4.4299 H   0  0  0  0  0  0  0  0  0  0  0  0
    3.3355    1.1077   -3.3722 H   0  0  0  0  0  0  0  0  0  0  0  0
    3.3995    1.5770   -5.1068 H   0  0  0  0  0  0  0  0  0  0  0  0
    1.7682   -0.1742   -5.7099 H   0  0  0  0  0  0  0  0  0  0  0  0
    1.1067    0.8662   -4.3991 H   0  0  0  0  0  0  0  0  0  0  0  0
  1  2  2  0
  2  3  1  0
  3  4  1  0
  4  5  1  0
  5  6  1  0
  6  7  1  0
  7  8  1  0
  8  9  1  0
  9 10  1  0
 10 11  1  0
  2 12  1  0
 12 13  2  0
 13 14  1  0
 14 15  2  0
 15 16  1  0
 16 17  2  0
 15 18  1  0
 18 19  1  0
 19 20  1  0
 20 21  1  0
 21 22  1  0
 22 23  1  0
 23 24  1  0
 24 25  1  0
 11  4  1  0
 10  6  1  0
 12 17  1  0
 25 20  1  0
  3 26  1  0
  4 27  1  0
  5 28  1  0
  5 29  1  0
  6 30  1  0
  7 31  1  0
  7 32  1  0
  8 33  1  0
  9 34  1  0
  9 35  1  0
 10 36  1  0
 11 37  1  0
 11 38  1  0
 13 39  1  0
 14 40  1  0
 16 41  1  0
 17 42  1  0
 19 43  1  0
 19 44  1  0
 20 45  1  0
 21 46  1  0
 21 47  1  0
 22 48  1  0
 22 49  1  0
 23 50  1  0
 23 51  1  0
 24 52  1  0
 24 53  1  0
 25 54  1  0
 25 55  1  0
M  END
$$$$
