
     RDKit          3D

 43 45  0  0  0  0  0  0  0  0999 V2000
   -4.4638    0.4060    0.5578 C   0  0  0  0  0  0  0  0  0  0  0  0
   -3.5999    0.2607   -0.6091 N   0  0  0  0  0  0  0  0  0  0  0  0
   -4.0131    0.5020   -1.8440 N   0  0  0  0  0  0  0  0  0  0  0  0
   -2.9837    0.2673   -2.6796 C   0  0  0  0  0  0  0  0  0  0  0  0
   -1.8800   -0.1243   -1.9471 C   0  0  0  0  0  0  0  0  0  0  0  0
   -0.5455   -0.4196   -2.4973 C   0  0  0  0  0  0  0  0  0  0  0  0
   -0.4645   -1.1277   -3.5373 O   0  0  0  0  0  0  0  0  0  0  0  0
    0.6535    0.1029   -1.8921 N   0  0  0  0  0  0  0  0  0  0  0  0
    1.9072   -0.6491   -2.0551 C   0  0  0  0  0  0  0  0  0  0  0  0
    3.0858    0.0430   -1.3569 C   0  0  0  0  0  0  0  0  0  0  0  0
    2.6621    0.5889    0.0106 C   0  0  0  0  0  0  0  0  0  0  0  0
    1.5374    1.6429   -0.1366 C   0  0  0  0  0  0  0  0  0  0  0  0
    0.6940    1.4950   -1.4180 C   0  0  0  0  0  0  0  0  0  0  0  0
    2.2321   -0.5015    0.8320 O   0  0  0  0  0  0  0  0  0  0  0  0
    2.0284   -0.4518    2.2208 C   0  0  0  0  0  0  0  0  0  0  0  0
    1.5180   -1.5920    2.8542 C   0  0  0  0  0  0  0  0  0  0  0  0
    1.2869   -1.5958    4.2328 C   0  0  0  0  0  0  0  0  0  0  0  0
    1.5687   -0.4571    4.9933 C   0  0  0  0  0  0  0  0  0  0  0  0
    1.2778   -0.4616    6.7232 Cl  0  0  0  0  0  0  0  0  0  0  0  0
    2.0833    0.6852    4.3726 C   0  0  0  0  0  0  0  0  0  0  0  0
    2.3152    0.6916    2.9936 C   0  0  0  0  0  0  0  0  0  0  0  0
   -2.3130   -0.1573   -0.6282 C   0  0  0  0  0  0  0  0  0  0  0  0
   -1.5166   -0.5723    0.5830 C   0  0  0  0  0  0  0  0  0  0  0  0
   -2.3204   -1.2414    1.4867 F   0  0  0  0  0  0  0  0  0  0  0  0
   -0.4867   -1.4202    0.2235 F   0  0  0  0  0  0  0  0  0  0  0  0
   -4.8061   -0.5939    0.8972 H   0  0  0  0  0  0  0  0  0  0  0  0
   -5.3532    1.0194    0.2999 H   0  0  0  0  0  0  0  0  0  0  0  0
   -3.9150    0.9147    1.3784 H   0  0  0  0  0  0  0  0  0  0  0  0
   -3.0284    0.3992   -3.7526 H   0  0  0  0  0  0  0  0  0  0  0  0
    1.7775   -1.6637   -1.6188 H   0  0  0  0  0  0  0  0  0  0  0  0
    2.1424   -0.7643   -3.1353 H   0  0  0  0  0  0  0  0  0  0  0  0
    3.9197   -0.6814   -1.2316 H   0  0  0  0  0  0  0  0  0  0  0  0
    3.4560    0.8791   -1.9905 H   0  0  0  0  0  0  0  0  0  0  0  0
    3.5582    1.0607    0.4702 H   0  0  0  0  0  0  0  0  0  0  0  0
    0.8652    1.6067    0.7450 H   0  0  0  0  0  0  0  0  0  0  0  0
    1.9934    2.6569   -0.1370 H   0  0  0  0  0  0  0  0  0  0  0  0
    1.1374    2.1241   -2.2203 H   0  0  0  0  0  0  0  0  0  0  0  0
   -0.3259    1.8898   -1.2249 H   0  0  0  0  0  0  0  0  0  0  0  0
    1.2940   -2.4777    2.2730 H   0  0  0  0  0  0  0  0  0  0  0  0
    0.8883   -2.4832    4.7077 H   0  0  0  0  0  0  0  0  0  0  0  0
    2.3036    1.5692    4.9575 H   0  0  0  0  0  0  0  0  0  0  0  0
    2.7117    1.5899    2.5423 H   0  0  0  0  0  0  0  0  0  0  0  0
   -1.0983    0.3284    1.0739 H   0  0  0  0  0  0  0  0  0  0  0  0
  1  2  1  0
  2  3  1  0
  3  4  2  0
  4  5  1  0
  5  6  1  0
  6  7  2  0
  6  8  1  0
  8  9  1  0
  9 10  1  0
 10 11  1  0
 11 12  1  0
 12 13  1  0
 11 14  1  0
 14 15  1  0
 15 16  2  0
 16 17  1  0
 17 18  2  0
 18 19  1  0
 18 20  1  0
 20 21  2  0
  5 22  2  0
 22 23  1  0
 23 24  1  0
 23 25  1  0
 22  2  1  0
 13  8  1  0
 15 21  1  0
  1 26  1  0
  1 27  1  0
  1 28  1  0
  4 29  1  0
  9 30  1  0
  9 31  1  0
 10 32  1  0
 10 33  1  0
 11 34  1  0
 12 35  1  0
 12 36  1  0
 13 37  1  0
 13 38  1  0
 16 39  1  0
 17 40  1  0
 20 41  1  0
 21 42  1  0
 23 43  1  0
M  END
$$$$
