
     RDKit          3D

 46 49  0  0  0  0  0  0  0  0999 V2000
   -3.8311    3.7414   -5.6318 C   0  0  0  0  0  0  0  0  0  0  0  0
   -3.0788    4.2990   -4.4256 C   0  0  0  0  0  0  0  0  0  0  0  0
   -3.7294    3.9049   -3.0864 C   0  0  0  0  0  0  0  0  0  0  0  0
   -2.6328    3.1345   -2.4322 C   0  0  0  0  0  0  0  0  0  0  0  0
   -1.5756    3.0561   -3.1652 N   0  0  0  0  0  0  0  0  0  0  0  0
   -1.7863    3.7188   -4.3451 O   0  0  0  0  0  0  0  0  0  0  0  0
   -2.7472    2.5135   -1.0639 C   0  0  0  0  0  0  0  0  0  0  0  0
   -1.5763    2.7681   -0.1634 C   0  0  0  0  0  0  0  0  0  0  0  0
   -1.1258    1.3653   -0.0986 N   0  0  0  0  0  0  0  0  0  0  0  0
   -2.2745    1.0936   -0.9830 C   0  0  0  0  0  0  0  0  0  0  0  0
   -0.0812    0.6264    0.5305 C   0  0  0  0  0  0  0  0  0  0  0  0
    0.7604    1.2349    1.2426 O   0  0  0  0  0  0  0  0  0  0  0  0
    0.0172   -0.7891    0.3172 N   0  0  0  0  0  0  0  0  0  0  0  0
    0.9106   -1.6645    1.0211 C   0  0  0  0  0  0  0  0  0  0  0  0
    1.5710   -1.4011    2.2103 C   0  0  0  0  0  0  0  0  0  0  0  0
    2.2432   -2.5768    2.4881 C   0  0  0  0  0  0  0  0  0  0  0  0
    3.0972   -2.8060    3.6752 C   0  0  0  0  0  0  0  0  0  0  0  0
    3.9797   -1.8006    4.1069 C   0  0  0  0  0  0  0  0  0  0  0  0
    4.7807   -1.9999    5.2355 C   0  0  0  0  0  0  0  0  0  0  0  0
    4.6994   -3.1982    5.9496 C   0  0  0  0  0  0  0  0  0  0  0  0
    5.4751   -3.3892    7.0450 F   0  0  0  0  0  0  0  0  0  0  0  0
    3.8115   -4.1961    5.5391 C   0  0  0  0  0  0  0  0  0  0  0  0
    3.0092   -4.0008    4.4104 C   0  0  0  0  0  0  0  0  0  0  0  0
    1.9924   -3.4646    1.4968 N   0  0  0  0  0  0  0  0  0  0  0  0
    2.5189   -4.8185    1.3561 C   0  0  0  0  0  0  0  0  0  0  0  0
    1.1710   -2.9209    0.6127 N   0  0  0  0  0  0  0  0  0  0  0  0
   -3.8933    2.6335   -5.5729 H   0  0  0  0  0  0  0  0  0  0  0  0
   -4.8576    4.1638   -5.6669 H   0  0  0  0  0  0  0  0  0  0  0  0
   -3.2992    4.0207   -6.5656 H   0  0  0  0  0  0  0  0  0  0  0  0
   -2.9876    5.4040   -4.5074 H   0  0  0  0  0  0  0  0  0  0  0  0
   -3.9782    4.8043   -2.4835 H   0  0  0  0  0  0  0  0  0  0  0  0
   -4.6272    3.2611   -3.2117 H   0  0  0  0  0  0  0  0  0  0  0  0
   -3.7282    2.6786   -0.5661 H   0  0  0  0  0  0  0  0  0  0  0  0
   -0.7868    3.4167   -0.6054 H   0  0  0  0  0  0  0  0  0  0  0  0
   -1.8888    3.1265    0.8425 H   0  0  0  0  0  0  0  0  0  0  0  0
   -3.0118    0.4322   -0.4760 H   0  0  0  0  0  0  0  0  0  0  0  0
   -1.9343    0.6649   -1.9524 H   0  0  0  0  0  0  0  0  0  0  0  0
   -0.5800   -1.2116   -0.4285 H   0  0  0  0  0  0  0  0  0  0  0  0
    1.5395   -0.5091    2.8201 H   0  0  0  0  0  0  0  0  0  0  0  0
    4.0578   -0.8672    3.5629 H   0  0  0  0  0  0  0  0  0  0  0  0
    5.4639   -1.2239    5.5560 H   0  0  0  0  0  0  0  0  0  0  0  0
    3.7376   -5.1190    6.0999 H   0  0  0  0  0  0  0  0  0  0  0  0
    2.3044   -4.7718    4.1310 H   0  0  0  0  0  0  0  0  0  0  0  0
    1.8716   -5.5315    1.9073 H   0  0  0  0  0  0  0  0  0  0  0  0
    3.5585   -4.8729    1.7425 H   0  0  0  0  0  0  0  0  0  0  0  0
    2.5335   -5.1086    0.2842 H   0  0  0  0  0  0  0  0  0  0  0  0
  1  2  1  0
  2  3  1  0
  3  4  1  0
  4  5  2  0
  5  6  1  0
  4  7  1  0
  7  8  1  0
  8  9  1  0
  9 10  1  0
  9 11  1  0
 11 12  2  0
 11 13  1  0
 13 14  1  0
 14 15  1  0
 15 16  2  0
 16 17  1  0
 17 18  2  0
 18 19  1  0
 19 20  2  0
 20 21  1  0
 20 22  1  0
 22 23  2  0
 16 24  1  0
 24 25  1  0
 24 26  1  0
  6  2  1  0
 10  7  1  0
 14 26  2  0
 17 23  1  0
  1 27  1  0
  1 28  1  0
  1 29  1  0
  2 30  1  0
  3 31  1  0
  3 32  1  0
  7 33  1  0
  8 34  1  0
  8 35  1  0
 10 36  1  0
 10 37  1  0
 13 38  1  0
 15 39  1  0
 18 40  1  0
 19 41  1  0
 22 42  1  0
 23 43  1  0
 25 44  1  0
 25 45  1  0
 25 46  1  0
M  END
$$$$
