
     RDKit          3D

 40 42  0  0  0  0  0  0  0  0999 V2000
   -1.6210   -1.0588    5.1529 O   0  0  0  0  0  0  0  0  0  0  0  0
   -1.6542   -2.0715    4.4048 C   0  0  0  0  0  0  0  0  0  0  0  0
   -1.8926   -3.4549    4.9114 C   0  0  0  0  0  0  0  0  0  0  0  0
   -1.9694   -4.3114    3.6331 C   0  0  0  0  0  0  0  0  0  0  0  0
   -1.7438   -3.3321    2.5304 C   0  0  0  0  0  0  0  0  0  0  0  0
   -1.7217   -3.6516    1.3119 O   0  0  0  0  0  0  0  0  0  0  0  0
   -1.5359   -2.0059    2.9904 N   0  0  0  0  0  0  0  0  0  0  0  0
   -1.3754   -0.8354    2.1687 C   0  0  0  0  0  0  0  0  0  0  0  0
   -0.6736    0.2889    2.6327 C   0  0  0  0  0  0  0  0  0  0  0  0
   -0.5318    1.4023    1.8028 C   0  0  0  0  0  0  0  0  0  0  0  0
   -1.0837    1.3933    0.5187 C   0  0  0  0  0  0  0  0  0  0  0  0
   -1.7615    0.2495    0.0819 C   0  0  0  0  0  0  0  0  0  0  0  0
   -1.8879   -0.8238    0.9064 N   0  0  0  0  0  0  0  0  0  0  0  0
   -0.8824    2.7884   -0.5374 S   0  0  0  0  0  0  0  0  0  0  0  0
   -1.2718    4.0293    0.2154 O   0  0  0  0  0  0  0  0  0  0  0  0
   -1.7725    2.6613   -1.7432 O   0  0  0  0  0  0  0  0  0  0  0  0
    0.7758    2.9186   -1.0400 N   0  0  0  0  0  0  0  0  0  0  0  0
    1.1344    1.7640   -1.8686 C   0  0  0  0  0  0  0  0  0  0  0  0
    2.6390    1.7831   -2.1897 C   0  0  0  0  0  0  0  0  0  0  0  0
    3.0487    2.8999   -3.1095 C   0  0  0  0  0  0  0  0  0  0  0  0
    4.2338    2.3084   -3.8493 C   0  0  0  0  0  0  0  0  0  0  0  0
    4.1899    0.9005   -3.7675 O   0  0  0  0  0  0  0  0  0  0  0  0
    3.0897    0.5533   -2.9591 C   0  0  0  0  0  0  0  0  0  0  0  0
   -2.8486   -3.4982    5.4761 H   0  0  0  0  0  0  0  0  0  0  0  0
   -1.0472   -3.7767    5.5565 H   0  0  0  0  0  0  0  0  0  0  0  0
   -1.1744   -5.0877    3.6260 H   0  0  0  0  0  0  0  0  0  0  0  0
   -2.9707   -4.7815    3.5285 H   0  0  0  0  0  0  0  0  0  0  0  0
   -0.2142    0.2999    3.6111 H   0  0  0  0  0  0  0  0  0  0  0  0
    0.0164    2.2665    2.1564 H   0  0  0  0  0  0  0  0  0  0  0  0
   -2.1842    0.2049   -0.9126 H   0  0  0  0  0  0  0  0  0  0  0  0
    0.8392    3.7792   -1.6311 H   0  0  0  0  0  0  0  0  0  0  0  0
    0.9178    0.8247   -1.3141 H   0  0  0  0  0  0  0  0  0  0  0  0
    0.5375    1.7600   -2.8090 H   0  0  0  0  0  0  0  0  0  0  0  0
    3.2229    1.8510   -1.2431 H   0  0  0  0  0  0  0  0  0  0  0  0
    2.2409    3.1417   -3.8363 H   0  0  0  0  0  0  0  0  0  0  0  0
    3.3320    3.8147   -2.5445 H   0  0  0  0  0  0  0  0  0  0  0  0
    4.2224    2.6217   -4.9152 H   0  0  0  0  0  0  0  0  0  0  0  0
    5.1808    2.6631   -3.3879 H   0  0  0  0  0  0  0  0  0  0  0  0
    3.3830   -0.2554   -2.2561 H   0  0  0  0  0  0  0  0  0  0  0  0
    2.2773    0.1707   -3.6162 H   0  0  0  0  0  0  0  0  0  0  0  0
  1  2  2  0
  2  3  1  0
  3  4  1  0
  4  5  1  0
  5  6  2  0
  5  7  1  0
  7  8  1  0
  8  9  2  0
  9 10  1  0
 10 11  2  0
 11 12  1  0
 12 13  2  0
 11 14  1  0
 14 15  2  0
 14 16  2  0
 14 17  1  0
 17 18  1  0
 18 19  1  0
 19 20  1  0
 20 21  1  0
 21 22  1  0
 22 23  1  0
  7  2  1  0
  8 13  1  0
 23 19  1  0
  3 24  1  0
  3 25  1  0
  4 26  1  0
  4 27  1  0
  9 28  1  0
 10 29  1  0
 12 30  1  0
 17 31  1  0
 18 32  1  0
 18 33  1  0
 19 34  1  0
 20 35  1  0
 20 36  1  0
 21 37  1  0
 21 38  1  0
 23 39  1  0
 23 40  1  0
M  END
$$$$
