
     RDKit          3D

 48 50  0  0  0  0  0  0  0  0999 V2000
   -3.0871   -1.3010    2.0839 C   0  0  0  0  0  0  0  0  0  0  0  0
   -2.8570   -1.5684    0.6264 C   0  0  0  0  0  0  0  0  0  0  0  0
   -3.7922   -1.1360   -0.3271 C   0  0  0  0  0  0  0  0  0  0  0  0
   -3.5531   -1.3373   -1.6902 C   0  0  0  0  0  0  0  0  0  0  0  0
   -2.3653   -1.9460   -2.1116 C   0  0  0  0  0  0  0  0  0  0  0  0
   -1.4306   -2.3795   -1.1641 C   0  0  0  0  0  0  0  0  0  0  0  0
   -1.6723   -2.1873    0.1985 C   0  0  0  0  0  0  0  0  0  0  0  0
   -2.0390   -2.1701   -3.8619 S   0  0  0  0  0  0  0  0  0  0  0  0
   -1.2503   -0.5378   -4.1052 C   0  0  0  0  0  0  0  0  0  0  0  0
    0.0793   -0.4659   -3.3985 C   0  0  0  0  0  0  0  0  0  0  0  0
    0.9853   -1.2574   -3.7789 O   0  0  0  0  0  0  0  0  0  0  0  0
    0.3652    0.4840   -2.3428 N   0  0  0  0  0  0  0  0  0  0  0  0
   -0.7027    1.2475   -1.6721 C   0  0  0  0  0  0  0  0  0  0  0  0
   -0.4101    1.5319   -0.1798 C   0  0  0  0  0  0  0  0  0  0  0  0
    1.0778    1.3668    0.2511 C   0  0  0  0  0  0  0  0  0  0  0  0
    1.9535    1.8052   -0.9436 C   0  0  0  0  0  0  0  0  0  0  0  0
    1.7755    0.8453   -2.1244 C   0  0  0  0  0  0  0  0  0  0  0  0
    1.3925    2.2899    1.4796 C   0  0  0  0  0  0  0  0  0  0  0  0
    2.4232    1.6644    2.4345 C   0  0  0  0  0  0  0  0  0  0  0  0
    3.7125    1.6872    1.8699 O   0  0  0  0  0  0  0  0  0  0  0  0
    2.0021    0.2394    2.8559 C   0  0  0  0  0  0  0  0  0  0  0  0
    1.0398   -0.3955    1.8435 C   0  0  0  0  0  0  0  0  0  0  0  0
    1.3587   -0.0116    0.5173 O   0  0  0  0  0  0  0  0  0  0  0  0
   -2.5474   -2.0420    2.7113 H   0  0  0  0  0  0  0  0  0  0  0  0
   -2.7221   -0.2829    2.3336 H   0  0  0  0  0  0  0  0  0  0  0  0
   -4.1692   -1.3682    2.3255 H   0  0  0  0  0  0  0  0  0  0  0  0
   -4.7031   -0.6399   -0.0155 H   0  0  0  0  0  0  0  0  0  0  0  0
   -4.2796   -0.9989   -2.4178 H   0  0  0  0  0  0  0  0  0  0  0  0
   -0.5107   -2.8531   -1.4827 H   0  0  0  0  0  0  0  0  0  0  0  0
   -0.9355   -2.5187    0.9185 H   0  0  0  0  0  0  0  0  0  0  0  0
   -1.9468    0.2747   -3.8230 H   0  0  0  0  0  0  0  0  0  0  0  0
   -1.0658   -0.4161   -5.1930 H   0  0  0  0  0  0  0  0  0  0  0  0
   -1.6661    0.7072   -1.7122 H   0  0  0  0  0  0  0  0  0  0  0  0
   -0.8375    2.2090   -2.2135 H   0  0  0  0  0  0  0  0  0  0  0  0
   -1.0619    0.8842    0.4414 H   0  0  0  0  0  0  0  0  0  0  0  0
   -0.7430    2.5744    0.0226 H   0  0  0  0  0  0  0  0  0  0  0  0
    1.6725    2.8336   -1.2645 H   0  0  0  0  0  0  0  0  0  0  0  0
    3.0279    1.8324   -0.6719 H   0  0  0  0  0  0  0  0  0  0  0  0
    2.3627   -0.0764   -1.9176 H   0  0  0  0  0  0  0  0  0  0  0  0
    2.1871    1.3144   -3.0443 H   0  0  0  0  0  0  0  0  0  0  0  0
    1.7394    3.2965    1.1569 H   0  0  0  0  0  0  0  0  0  0  0  0
    0.4638    2.4569    2.0708 H   0  0  0  0  0  0  0  0  0  0  0  0
    2.4611    2.2950    3.3498 H   0  0  0  0  0  0  0  0  0  0  0  0
    3.7990    0.9134    1.2551 H   0  0  0  0  0  0  0  0  0  0  0  0
    2.8998   -0.4058    2.9780 H   0  0  0  0  0  0  0  0  0  0  0  0
    1.4951    0.2785    3.8450 H   0  0  0  0  0  0  0  0  0  0  0  0
    1.1211   -1.4999    1.9204 H   0  0  0  0  0  0  0  0  0  0  0  0
   -0.0092   -0.1377    2.1038 H   0  0  0  0  0  0  0  0  0  0  0  0
  1  2  1  0
  2  3  2  0
  3  4  1  0
  4  5  2  0
  5  6  1  0
  6  7  2  0
  5  8  1  0
  8  9  1  0
  9 10  1  0
 10 11  2  0
 10 12  1  0
 12 13  1  0
 13 14  1  0
 14 15  1  0
 15 16  1  0
 16 17  1  0
 15 18  1  0
 18 19  1  0
 19 20  1  0
 19 21  1  0
 21 22  1  0
 22 23  1  0
  2  7  1  0
 17 12  1  0
 23 15  1  0
  1 24  1  0
  1 25  1  0
  1 26  1  0
  3 27  1  0
  4 28  1  0
  6 29  1  0
  7 30  1  0
  9 31  1  0
  9 32  1  0
 13 33  1  0
 13 34  1  0
 14 35  1  0
 14 36  1  0
 16 37  1  0
 16 38  1  0
 17 39  1  0
 17 40  1  0
 18 41  1  0
 18 42  1  0
 19 43  1  0
 20 44  1  0
 21 45  1  0
 21 46  1  0
 22 47  1  0
 22 48  1  0
M  END
$$$$
