
     RDKit          3D

 59 62  0  0  0  0  0  0  0  0999 V2000
    2.0782    5.9812   -0.0312 C   0  0  0  0  0  0  0  0  0  0  0  0
    1.8112    4.7782   -0.8834 C   0  0  0  0  0  0  0  0  0  0  0  0
    1.6808    3.4877   -0.4111 C   0  0  0  0  0  0  0  0  0  0  0  0
    1.3941    2.7464   -1.5456 C   0  0  0  0  0  0  0  0  0  0  0  0
    1.3489    3.5465   -2.6279 N   0  0  0  0  0  0  0  0  0  0  0  0
    1.6211    4.7781   -2.2242 N   0  0  0  0  0  0  0  0  0  0  0  0
    1.6741    5.9010   -3.1206 C   0  0  0  0  0  0  0  0  0  0  0  0
    2.7440    6.8116   -3.0643 C   0  0  0  0  0  0  0  0  0  0  0  0
    2.8032    7.8882   -3.9540 C   0  0  0  0  0  0  0  0  0  0  0  0
    1.8012    8.0612   -4.9123 C   0  0  0  0  0  0  0  0  0  0  0  0
    1.8609    9.1058   -5.7753 F   0  0  0  0  0  0  0  0  0  0  0  0
    0.7413    7.1531   -4.9862 C   0  0  0  0  0  0  0  0  0  0  0  0
    0.6783    6.0724   -4.0996 C   0  0  0  0  0  0  0  0  0  0  0  0
   -0.3633    5.2065   -4.1811 F   0  0  0  0  0  0  0  0  0  0  0  0
    1.1038    1.3426   -1.6036 N   0  0  0  0  0  0  0  0  0  0  0  0
    1.4853    0.3912   -0.5991 C   0  0  0  0  0  0  0  0  0  0  0  0
    2.2768    0.7205    0.3257 O   0  0  0  0  0  0  0  0  0  0  0  0
    0.9922   -0.9537   -0.6756 N   0  0  0  0  0  0  0  0  0  0  0  0
    1.3894   -1.9895    0.2852 C   0  0  0  0  0  0  0  0  0  0  0  0
    1.1150   -3.3997   -0.2857 C   0  0  0  0  0  0  0  0  0  0  0  0
   -0.2495   -3.9227    0.1759 C   0  0  0  0  0  0  0  0  0  0  0  0
   -0.3045   -4.1001    1.6520 N   0  0  0  0  0  0  0  0  0  0  0  0
    0.4929   -3.0807    2.3983 C   0  0  0  0  0  0  0  0  0  0  0  0
    0.6587   -1.7636    1.6268 C   0  0  0  0  0  0  0  0  0  0  0  0
   -1.6998   -4.2115    2.1678 C   0  0  0  0  0  0  0  0  0  0  0  0
   -2.5571   -5.2030    1.3546 C   0  0  0  0  0  0  0  0  0  0  0  0
   -1.7011   -4.6856    3.6116 C   0  0  0  0  0  0  0  0  0  0  0  0
   -0.9079   -5.7785    4.0081 C   0  0  0  0  0  0  0  0  0  0  0  0
   -0.9257   -6.2198    5.3344 C   0  0  0  0  0  0  0  0  0  0  0  0
   -1.7432   -5.5855    6.2727 C   0  0  0  0  0  0  0  0  0  0  0  0
   -2.5459   -4.5095    5.8860 C   0  0  0  0  0  0  0  0  0  0  0  0
   -2.5289   -4.0619    4.5612 C   0  0  0  0  0  0  0  0  0  0  0  0
    1.5531    6.8693   -0.4409 H   0  0  0  0  0  0  0  0  0  0  0  0
    1.7097    5.8064    1.0020 H   0  0  0  0  0  0  0  0  0  0  0  0
    3.1698    6.1765    0.0075 H   0  0  0  0  0  0  0  0  0  0  0  0
    1.7376    3.1580    0.6175 H   0  0  0  0  0  0  0  0  0  0  0  0
    3.5435    6.6764   -2.3484 H   0  0  0  0  0  0  0  0  0  0  0  0
    3.6312    8.5840   -3.9045 H   0  0  0  0  0  0  0  0  0  0  0  0
   -0.0330    7.2862   -5.7316 H   0  0  0  0  0  0  0  0  0  0  0  0
    0.6222    0.9859   -2.4599 H   0  0  0  0  0  0  0  0  0  0  0  0
    0.3212   -1.1907   -1.4418 H   0  0  0  0  0  0  0  0  0  0  0  0
    2.4874   -1.9161    0.4555 H   0  0  0  0  0  0  0  0  0  0  0  0
    1.9002   -4.1032    0.0704 H   0  0  0  0  0  0  0  0  0  0  0  0
    1.1646   -3.3961   -1.3965 H   0  0  0  0  0  0  0  0  0  0  0  0
   -1.0379   -3.2154   -0.1696 H   0  0  0  0  0  0  0  0  0  0  0  0
   -0.4197   -4.9039   -0.3167 H   0  0  0  0  0  0  0  0  0  0  0  0
    1.5002   -3.5045    2.6022 H   0  0  0  0  0  0  0  0  0  0  0  0
    0.0557   -2.8428    3.3923 H   0  0  0  0  0  0  0  0  0  0  0  0
    1.2319   -1.0404    2.2468 H   0  0  0  0  0  0  0  0  0  0  0  0
   -0.3510   -1.3302    1.4487 H   0  0  0  0  0  0  0  0  0  0  0  0
   -2.1888   -3.2124    2.1015 H   0  0  0  0  0  0  0  0  0  0  0  0
   -2.0337   -6.1779    1.2511 H   0  0  0  0  0  0  0  0  0  0  0  0
   -3.5340   -5.3742    1.8583 H   0  0  0  0  0  0  0  0  0  0  0  0
   -2.7825   -4.8000    0.3455 H   0  0  0  0  0  0  0  0  0  0  0  0
   -0.2735   -6.2840    3.2912 H   0  0  0  0  0  0  0  0  0  0  0  0
   -0.3069   -7.0552    5.6343 H   0  0  0  0  0  0  0  0  0  0  0  0
   -1.7564   -5.9290    7.2991 H   0  0  0  0  0  0  0  0  0  0  0  0
   -3.1831   -4.0226    6.6126 H   0  0  0  0  0  0  0  0  0  0  0  0
   -3.1603   -3.2294    4.2776 H   0  0  0  0  0  0  0  0  0  0  0  0
  1  2  1  0
  2  3  2  0
  3  4  1  0
  4  5  2  0
  5  6  1  0
  6  7  1  0
  7  8  2  0
  8  9  1  0
  9 10  2  0
 10 11  1  0
 10 12  1  0
 12 13  2  0
 13 14  1  0
  4 15  1  0
 15 16  1  0
 16 17  2  0
 16 18  1  0
 18 19  1  0
 19 20  1  0
 20 21  1  0
 21 22  1  0
 22 23  1  0
 23 24  1  0
 22 25  1  0
 25 26  1  0
 25 27  1  0
 27 28  2  0
 28 29  1  0
 29 30  2  0
 30 31  1  0
 31 32  2  0
  6  2  1  0
  7 13  1  0
 24 19  1  0
 27 32  1  0
  1 33  1  0
  1 34  1  0
  1 35  1  0
  3 36  1  0
  8 37  1  0
  9 38  1  0
 12 39  1  0
 15 40  1  0
 18 41  1  0
 19 42  1  0
 20 43  1  0
 20 44  1  0
 21 45  1  0
 21 46  1  0
 23 47  1  0
 23 48  1  0
 24 49  1  0
 24 50  1  0
 25 51  1  0
 26 52  1  0
 26 53  1  0
 26 54  1  0
 28 55  1  0
 29 56  1  0
 30 57  1  0
 31 58  1  0
 32 59  1  0
M  END
$$$$
