
     RDKit          3D

 39 42  0  0  0  0  0  0  0  0999 V2000
    3.2044   -3.2704    1.2943 C   0  0  0  0  0  0  0  0  0  0  0  0
    3.0277   -2.2500    0.1686 C   0  0  1  0  0  0  0  0  0  0  0  0
    1.7948   -1.4746    0.3943 N   0  0  0  0  0  0  0  0  0  0  0  0
    1.4250   -0.6829   -0.7855 C   0  0  0  0  0  0  0  0  0  0  0  0
    0.0853   -0.0495   -0.5651 C   0  0  0  0  0  0  0  0  0  0  0  0
    0.0167    1.2579   -0.1763 N   0  0  0  0  0  0  0  0  0  0  0  0
   -1.1956    1.8140    0.0514 C   0  0  0  0  0  0  0  0  0  0  0  0
   -1.5079    3.4097    0.5354 S   0  0  0  0  0  0  0  0  0  0  0  0
   -3.1766    3.1387    0.5515 C   0  0  0  0  0  0  0  0  0  0  0  0
   -4.3478    3.9700    0.8704 C   0  0  0  0  0  0  0  0  0  0  0  0
   -5.5260    2.9847    0.6538 C   0  0  0  0  0  0  0  0  0  0  0  0
   -4.9378    1.6150    0.2201 C   0  0  0  0  0  0  0  0  0  0  0  0
   -3.4842    1.8714    0.2012 C   0  0  0  0  0  0  0  0  0  0  0  0
   -2.3680    1.0909   -0.0902 C   0  0  0  0  0  0  0  0  0  0  0  0
   -2.2926   -0.2455   -0.4751 C   0  0  0  0  0  0  0  0  0  0  0  0
   -3.3343   -0.9419   -0.6106 O   0  0  0  0  0  0  0  0  0  0  0  0
   -1.0614   -0.7922   -0.7021 N   0  0  0  0  0  0  0  0  0  0  0  0
    4.2422   -1.3581    0.0718 C   0  0  0  0  0  0  0  0  0  0  0  0
    4.7231   -0.4999    1.0560 C   0  0  0  0  0  0  0  0  0  0  0  0
    5.8608    0.2104    0.6557 C   0  0  0  0  0  0  0  0  0  0  0  0
    6.7519    1.4656    1.7815 Br  0  0  0  0  0  0  0  0  0  0  0  0
    6.2809   -0.0785   -0.6359 C   0  0  0  0  0  0  0  0  0  0  0  0
    5.2311   -1.2219   -1.2823 S   0  0  0  0  0  0  0  0  0  0  0  0
    3.2835   -2.7622    2.2791 H   0  0  0  0  0  0  0  0  0  0  0  0
    4.1215   -3.8745    1.1243 H   0  0  0  0  0  0  0  0  0  0  0  0
    2.3316   -3.9570    1.3195 H   0  0  0  0  0  0  0  0  0  0  0  0
    2.9329   -2.8306   -0.7766 H   0  0  0  0  0  0  0  0  0  0  0  0
    1.9303   -0.8267    1.2067 H   0  0  0  0  0  0  0  0  0  0  0  0
    1.3663   -1.3326   -1.6864 H   0  0  0  0  0  0  0  0  0  0  0  0
    2.1831    0.1093   -0.9767 H   0  0  0  0  0  0  0  0  0  0  0  0
   -4.4091    4.8329    0.1736 H   0  0  0  0  0  0  0  0  0  0  0  0
   -4.2989    4.3153    1.9251 H   0  0  0  0  0  0  0  0  0  0  0  0
   -6.1052    2.8699    1.5959 H   0  0  0  0  0  0  0  0  0  0  0  0
   -6.2072    3.3733   -0.1344 H   0  0  0  0  0  0  0  0  0  0  0  0
   -5.2920    1.3284   -0.7932 H   0  0  0  0  0  0  0  0  0  0  0  0
   -5.1794    0.8223    0.9601 H   0  0  0  0  0  0  0  0  0  0  0  0
   -0.9945   -1.7969   -0.9837 H   0  0  0  0  0  0  0  0  0  0  0  0
    4.2667   -0.3880    2.0306 H   0  0  0  0  0  0  0  0  0  0  0  0
    7.1334    0.3580   -1.1384 H   0  0  0  0  0  0  0  0  0  0  0  0
  1  2  1  0
  2  3  1  0
  3  4  1  0
  4  5  1  0
  5  6  2  0
  6  7  1  0
  7  8  1  0
  8  9  1  0
  9 10  1  0
 10 11  1  0
 11 12  1  0
 12 13  1  0
 13 14  1  0
 14 15  1  0
 15 16  2  0
 15 17  1  0
  2 18  1  0
 18 19  2  0
 19 20  1  0
 20 21  1  0
 20 22  2  0
 22 23  1  0
 17  5  1  0
  7 14  2  0
  9 13  2  0
 23 18  1  0
  1 24  1  0
  1 25  1  0
  1 26  1  0
  2 27  1  6
  3 28  1  0
  4 29  1  0
  4 30  1  0
 10 31  1  0
 10 32  1  0
 11 33  1  0
 11 34  1  0
 12 35  1  0
 12 36  1  0
 17 37  1  0
 19 38  1  0
 22 39  1  0
M  END
$$$$
