
     RDKit          3D

 59 62  0  0  0  0  0  0  0  0999 V2000
   -5.9930    3.4549   -2.4660 C   0  0  0  0  0  0  0  0  0  0  0  0
   -4.8572    2.5591   -2.0758 C   0  0  0  0  0  0  0  0  0  0  0  0
   -3.9629    2.8130   -1.0553 C   0  0  0  0  0  0  0  0  0  0  0  0
   -3.0831    1.7502   -1.1137 C   0  0  0  0  0  0  0  0  0  0  0  0
   -3.4303    0.9027   -2.1026 N   0  0  0  0  0  0  0  0  0  0  0  0
   -4.5206    1.3916   -2.6734 N   0  0  0  0  0  0  0  0  0  0  0  0
   -5.1668    0.7592   -3.7885 C   0  0  0  0  0  0  0  0  0  0  0  0
   -4.4077    0.3808   -4.9066 C   0  0  0  0  0  0  0  0  0  0  0  0
   -5.0198   -0.2445   -5.9967 C   0  0  0  0  0  0  0  0  0  0  0  0
   -6.3915   -0.5104   -5.9717 C   0  0  0  0  0  0  0  0  0  0  0  0
   -6.9833   -1.1181   -7.0290 F   0  0  0  0  0  0  0  0  0  0  0  0
   -7.1508   -0.1594   -4.8521 C   0  0  0  0  0  0  0  0  0  0  0  0
   -6.5429    0.4667   -3.7587 C   0  0  0  0  0  0  0  0  0  0  0  0
   -7.2847    0.7428   -2.6569 F   0  0  0  0  0  0  0  0  0  0  0  0
   -1.9481    1.5787   -0.2537 N   0  0  0  0  0  0  0  0  0  0  0  0
   -1.0267    0.4825   -0.3541 C   0  0  0  0  0  0  0  0  0  0  0  0
   -1.1888   -0.4083   -1.2317 O   0  0  0  0  0  0  0  0  0  0  0  0
    0.0840    0.4083    0.5516 N   0  0  0  0  0  0  0  0  0  0  0  0
    1.0524   -0.6935    0.5486 C   0  0  0  0  0  0  0  0  0  0  0  0
    0.8317   -1.5942    1.7823 C   0  0  0  0  0  0  0  0  0  0  0  0
    1.7677   -1.1989    2.9311 C   0  0  0  0  0  0  0  0  0  0  0  0
    3.2017   -1.3760    2.5723 N   0  0  0  0  0  0  0  0  0  0  0  0
    3.4849   -1.1018    1.1315 C   0  0  0  0  0  0  0  0  0  0  0  0
    2.4848   -0.1242    0.4992 C   0  0  0  0  0  0  0  0  0  0  0  0
    4.1155   -0.6219    3.4787 C   0  0  0  0  0  0  0  0  0  0  0  0
    3.7898   -0.8452    4.9697 C   0  0  0  0  0  0  0  0  0  0  0  0
    5.5586   -1.0433    3.2573 C   0  0  0  0  0  0  0  0  0  0  0  0
    6.5628   -0.0721    3.0940 C   0  0  0  0  0  0  0  0  0  0  0  0
    7.8923   -0.4576    2.8968 C   0  0  0  0  0  0  0  0  0  0  0  0
    8.2321   -1.8126    2.8680 C   0  0  0  0  0  0  0  0  0  0  0  0
    7.2438   -2.7855    3.0401 C   0  0  0  0  0  0  0  0  0  0  0  0
    5.9129   -2.4053    3.2370 C   0  0  0  0  0  0  0  0  0  0  0  0
   -6.2272    3.3416   -3.5444 H   0  0  0  0  0  0  0  0  0  0  0  0
   -6.8894    3.2057   -1.8620 H   0  0  0  0  0  0  0  0  0  0  0  0
   -5.7196    4.5149   -2.2799 H   0  0  0  0  0  0  0  0  0  0  0  0
   -3.9399    3.6611   -0.3831 H   0  0  0  0  0  0  0  0  0  0  0  0
   -3.3445    0.5823   -4.9359 H   0  0  0  0  0  0  0  0  0  0  0  0
   -4.4293   -0.5241   -6.8598 H   0  0  0  0  0  0  0  0  0  0  0  0
   -8.2094   -0.3846   -4.8258 H   0  0  0  0  0  0  0  0  0  0  0  0
   -1.7801    2.2999    0.4834 H   0  0  0  0  0  0  0  0  0  0  0  0
    0.1539    1.1274    1.3069 H   0  0  0  0  0  0  0  0  0  0  0  0
    0.9108   -1.3244   -0.3567 H   0  0  0  0  0  0  0  0  0  0  0  0
    1.0347   -2.6537    1.5100 H   0  0  0  0  0  0  0  0  0  0  0  0
   -0.2258   -1.5392    2.1223 H   0  0  0  0  0  0  0  0  0  0  0  0
    1.5269   -1.8470    3.8009 H   0  0  0  0  0  0  0  0  0  0  0  0
    1.5554   -0.1424    3.2134 H   0  0  0  0  0  0  0  0  0  0  0  0
    4.5070   -0.6992    0.9666 H   0  0  0  0  0  0  0  0  0  0  0  0
    3.4451   -2.0643    0.5767 H   0  0  0  0  0  0  0  0  0  0  0  0
    2.7702    0.0713   -0.5574 H   0  0  0  0  0  0  0  0  0  0  0  0
    2.5450    0.8420    1.0471 H   0  0  0  0  0  0  0  0  0  0  0  0
    4.0073    0.4682    3.2731 H   0  0  0  0  0  0  0  0  0  0  0  0
    3.7085   -1.9301    5.1935 H   0  0  0  0  0  0  0  0  0  0  0  0
    2.8402   -0.3434    5.2491 H   0  0  0  0  0  0  0  0  0  0  0  0
    4.5859   -0.4079    5.6104 H   0  0  0  0  0  0  0  0  0  0  0  0
    6.3168    0.9827    3.1152 H   0  0  0  0  0  0  0  0  0  0  0  0
    8.6595    0.2950    2.7656 H   0  0  0  0  0  0  0  0  0  0  0  0
    9.2618   -2.1089    2.7147 H   0  0  0  0  0  0  0  0  0  0  0  0
    7.5090   -3.8347    3.0202 H   0  0  0  0  0  0  0  0  0  0  0  0
    5.1578   -3.1703    3.3699 H   0  0  0  0  0  0  0  0  0  0  0  0
  1  2  1  0
  2  3  2  0
  3  4  1  0
  4  5  2  0
  5  6  1  0
  6  7  1  0
  7  8  2  0
  8  9  1  0
  9 10  2  0
 10 11  1  0
 10 12  1  0
 12 13  2  0
 13 14  1  0
  4 15  1  0
 15 16  1  0
 16 17  2  0
 16 18  1  0
 18 19  1  0
 19 20  1  0
 20 21  1  0
 21 22  1  0
 22 23  1  0
 23 24  1  0
 22 25  1  0
 25 26  1  0
 25 27  1  0
 27 28  2  0
 28 29  1  0
 29 30  2  0
 30 31  1  0
 31 32  2  0
  6  2  1  0
  7 13  1  0
 24 19  1  0
 27 32  1  0
  1 33  1  0
  1 34  1  0
  1 35  1  0
  3 36  1  0
  8 37  1  0
  9 38  1  0
 12 39  1  0
 15 40  1  0
 18 41  1  0
 19 42  1  0
 20 43  1  0
 20 44  1  0
 21 45  1  0
 21 46  1  0
 23 47  1  0
 23 48  1  0
 24 49  1  0
 24 50  1  0
 25 51  1  0
 26 52  1  0
 26 53  1  0
 26 54  1  0
 28 55  1  0
 29 56  1  0
 30 57  1  0
 31 58  1  0
 32 59  1  0
M  END
$$$$
