
     RDKit          3D

 48 50  0  0  0  0  0  0  0  0999 V2000
   -0.3788   -0.5992   -0.2531 O   0  0  0  0  0  0  0  0  0  0  0  0
   -1.5477   -0.1261   -0.2147 C   0  0  0  0  0  0  0  0  0  0  0  0
   -2.1680    0.1765    1.0443 N   0  0  0  0  0  0  0  0  0  0  0  0
   -1.4698    0.2019    2.3012 C   0  0  0  0  0  0  0  0  0  0  0  0
   -2.1445   -0.1804    3.4686 C   0  0  0  0  0  0  0  0  0  0  0  0
   -1.4977   -0.1372    4.7046 C   0  0  0  0  0  0  0  0  0  0  0  0
   -0.1731    0.2966    4.7895 C   0  0  0  0  0  0  0  0  0  0  0  0
    0.5210    0.6964    3.6341 C   0  0  0  0  0  0  0  0  0  0  0  0
   -0.1435    0.6629    2.3937 C   0  0  0  0  0  0  0  0  0  0  0  0
    1.9212    1.1750    3.7361 C   0  0  0  0  0  0  0  0  0  0  0  0
    2.3458    1.6068    4.8428 O   0  0  0  0  0  0  0  0  0  0  0  0
    2.8046    1.1158    2.6017 N   0  0  0  0  0  0  0  0  0  0  0  0
    4.0439    1.8395    2.5143 C   0  0  0  0  0  0  0  0  0  0  0  0
    4.9141    1.6085    1.4389 C   0  0  0  0  0  0  0  0  0  0  0  0
    6.1089    2.3260    1.3535 C   0  0  0  0  0  0  0  0  0  0  0  0
    6.4253    3.2685    2.3341 C   0  0  0  0  0  0  0  0  0  0  0  0
    7.9218    4.1786    2.2407 Cl  0  0  0  0  0  0  0  0  0  0  0  0
    5.5343    3.4793    3.3894 C   0  0  0  0  0  0  0  0  0  0  0  0
    4.3760    2.7699    3.4539 N   0  0  0  0  0  0  0  0  0  0  0  0
   -2.2807    0.0724   -1.4316 N   0  0  0  0  0  0  0  0  0  0  0  0
   -1.7119   -0.2513   -2.7461 C   0  0  0  0  0  0  0  0  0  0  0  0
   -2.5762    0.3252   -3.8786 C   0  0  0  0  0  0  0  0  0  0  0  0
   -3.8676   -0.2190   -3.8461 O   0  0  0  0  0  0  0  0  0  0  0  0
   -1.5405   -1.7492   -2.9101 C   0  0  0  0  0  0  0  0  0  0  0  0
   -2.5336   -2.6459   -2.4731 C   0  0  0  0  0  0  0  0  0  0  0  0
   -2.3711   -4.0223   -2.6520 C   0  0  0  0  0  0  0  0  0  0  0  0
   -1.2241   -4.5190   -3.2762 C   0  0  0  0  0  0  0  0  0  0  0  0
   -1.0779   -5.8571   -3.4451 F   0  0  0  0  0  0  0  0  0  0  0  0
   -0.2360   -3.6360   -3.7279 C   0  0  0  0  0  0  0  0  0  0  0  0
    1.2048   -4.2488   -4.5220 Cl  0  0  0  0  0  0  0  0  0  0  0  0
   -0.3964   -2.2571   -3.5498 C   0  0  0  0  0  0  0  0  0  0  0  0
   -3.2063    0.2951    1.0560 H   0  0  0  0  0  0  0  0  0  0  0  0
   -3.1719   -0.5188    3.4181 H   0  0  0  0  0  0  0  0  0  0  0  0
   -2.0245   -0.4411    5.6000 H   0  0  0  0  0  0  0  0  0  0  0  0
    0.3094    0.3162    5.7588 H   0  0  0  0  0  0  0  0  0  0  0  0
    0.3503    1.0388    1.5084 H   0  0  0  0  0  0  0  0  0  0  0  0
    2.5518    0.4833    1.8093 H   0  0  0  0  0  0  0  0  0  0  0  0
    4.6692    0.8797    0.6764 H   0  0  0  0  0  0  0  0  0  0  0  0
    6.7852    2.1499    0.5267 H   0  0  0  0  0  0  0  0  0  0  0  0
    5.7596    4.2069    4.1578 H   0  0  0  0  0  0  0  0  0  0  0  0
   -3.2400    0.4828   -1.3677 H   0  0  0  0  0  0  0  0  0  0  0  0
   -0.7173    0.2439   -2.8171 H   0  0  0  0  0  0  0  0  0  0  0  0
   -2.6339    1.4311   -3.7650 H   0  0  0  0  0  0  0  0  0  0  0  0
   -2.0979    0.1007   -4.8589 H   0  0  0  0  0  0  0  0  0  0  0  0
   -4.3598    0.1950   -4.6018 H   0  0  0  0  0  0  0  0  0  0  0  0
   -3.4327   -2.2807   -1.9930 H   0  0  0  0  0  0  0  0  0  0  0  0
   -3.1380   -4.7042   -2.3079 H   0  0  0  0  0  0  0  0  0  0  0  0
    0.3707   -1.5824   -3.9098 H   0  0  0  0  0  0  0  0  0  0  0  0
  1  2  2  0
  2  3  1  0
  3  4  1  0
  4  5  2  0
  5  6  1  0
  6  7  2  0
  7  8  1  0
  8  9  2  0
  8 10  1  0
 10 11  2  0
 10 12  1  0
 12 13  1  0
 13 14  2  0
 14 15  1  0
 15 16  2  0
 16 17  1  0
 16 18  1  0
 18 19  2  0
  2 20  1  0
 20 21  1  0
 21 22  1  0
 22 23  1  0
 21 24  1  0
 24 25  2  0
 25 26  1  0
 26 27  2  0
 27 28  1  0
 27 29  1  0
 29 30  1  0
 29 31  2  0
  4  9  1  0
 13 19  1  0
 24 31  1  0
  3 32  1  0
  5 33  1  0
  6 34  1  0
  7 35  1  0
  9 36  1  0
 12 37  1  0
 14 38  1  0
 15 39  1  0
 18 40  1  0
 20 41  1  0
 21 42  1  0
 22 43  1  0
 22 44  1  0
 23 45  1  0
 25 46  1  0
 26 47  1  0
 31 48  1  0
M  END
$$$$
