
     RDKit          3D

 48 51  0  0  0  0  0  0  0  0999 V2000
   -0.6243    4.5997    0.2140 C   0  0  0  0  0  0  0  0  0  0  0  0
   -1.3590    3.6679   -0.7714 C   0  0  0  0  0  0  0  0  0  0  0  0
   -0.6269    3.6482   -2.1286 C   0  0  0  0  0  0  0  0  0  0  0  0
   -2.6786    4.1235   -0.9551 O   0  0  0  0  0  0  0  0  0  0  0  0
   -1.4310    2.2412   -0.1925 C   0  0  0  0  0  0  0  0  0  0  0  0
   -0.1353    1.7321    0.0205 O   0  0  0  0  0  0  0  0  0  0  0  0
   -0.2834    0.4780    0.5220 N   0  0  0  0  0  0  0  0  0  0  0  0
   -0.1471   -0.6664   -0.3269 C   0  0  0  0  0  0  0  0  0  0  0  0
   -0.2054   -0.5279   -1.5783 O   0  0  0  0  0  0  0  0  0  0  0  0
    0.0215   -2.0118    0.2504 C   0  0  0  0  0  0  0  0  0  0  0  0
   -0.7853   -3.0779   -0.2030 C   0  0  0  0  0  0  0  0  0  0  0  0
   -0.7226   -4.3534    0.4333 C   0  0  0  0  0  0  0  0  0  0  0  0
    0.1296   -4.5352    1.4870 N   0  0  0  0  0  0  0  0  0  0  0  0
    0.9174   -3.5143    1.8973 C   0  0  0  0  0  0  0  0  0  0  0  0
    1.7826   -3.5399    2.8770 O   0  0  0  0  0  0  0  0  0  0  0  0
    2.3851   -2.3851    2.9665 N   0  0  0  0  0  0  0  0  0  0  0  0
    1.8819   -1.5822    1.9968 C   0  0  0  0  0  0  0  0  0  0  0  0
    2.4169   -0.2391    1.7136 C   0  0  0  0  0  0  0  0  0  0  0  0
    2.8142    0.1153    0.4133 C   0  0  0  0  0  0  0  0  0  0  0  0
    3.3091    1.3970    0.1537 C   0  0  0  0  0  0  0  0  0  0  0  0
    3.4278    2.3251    1.1917 C   0  0  0  0  0  0  0  0  0  0  0  0
    3.0629    1.9688    2.4931 C   0  0  0  0  0  0  0  0  0  0  0  0
    2.5673    0.6877    2.7566 C   0  0  0  0  0  0  0  0  0  0  0  0
    0.9075   -2.2892    1.3014 C   0  0  0  0  0  0  0  0  0  0  0  0
   -1.5684   -5.5406    0.0200 C   0  0  0  0  0  0  0  0  0  0  0  0
   -2.9843   -5.2553   -0.4610 C   0  0  0  0  0  0  0  0  0  0  0  0
   -1.9112   -5.6798   -1.4568 C   0  0  0  0  0  0  0  0  0  0  0  0
    0.4188    4.2560    0.3848 H   0  0  0  0  0  0  0  0  0  0  0  0
   -1.1551    4.6235    1.1898 H   0  0  0  0  0  0  0  0  0  0  0  0
   -0.5857    5.6358   -0.1855 H   0  0  0  0  0  0  0  0  0  0  0  0
   -1.1597    2.9856   -2.8439 H   0  0  0  0  0  0  0  0  0  0  0  0
    0.4157    3.2811   -2.0128 H   0  0  0  0  0  0  0  0  0  0  0  0
   -0.5876    4.6695   -2.5644 H   0  0  0  0  0  0  0  0  0  0  0  0
   -2.6383    5.0432   -1.3286 H   0  0  0  0  0  0  0  0  0  0  0  0
   -1.9905    1.5904   -0.9039 H   0  0  0  0  0  0  0  0  0  0  0  0
   -1.9938    2.2689    0.7695 H   0  0  0  0  0  0  0  0  0  0  0  0
   -0.3734    0.3516    1.5557 H   0  0  0  0  0  0  0  0  0  0  0  0
   -1.4741   -2.8947   -1.0160 H   0  0  0  0  0  0  0  0  0  0  0  0
    2.7380   -0.5980   -0.3979 H   0  0  0  0  0  0  0  0  0  0  0  0
    3.6011    1.6703   -0.8520 H   0  0  0  0  0  0  0  0  0  0  0  0
    3.8085    3.3177    0.9890 H   0  0  0  0  0  0  0  0  0  0  0  0
    3.1624    2.6859    3.2976 H   0  0  0  0  0  0  0  0  0  0  0  0
    2.2819    0.4259    3.7681 H   0  0  0  0  0  0  0  0  0  0  0  0
   -1.4455   -6.5025    0.5631 H   0  0  0  0  0  0  0  0  0  0  0  0
   -3.7172   -6.0563   -0.2275 H   0  0  0  0  0  0  0  0  0  0  0  0
   -3.2893   -4.1917   -0.5362 H   0  0  0  0  0  0  0  0  0  0  0  0
   -1.5665   -4.8740   -2.1363 H   0  0  0  0  0  0  0  0  0  0  0  0
   -2.0170   -6.7289   -1.8052 H   0  0  0  0  0  0  0  0  0  0  0  0
  1  2  1  0
  2  3  1  0
  2  4  1  0
  2  5  1  0
  5  6  1  0
  6  7  1  0
  7  8  1  0
  8  9  2  0
  8 10  1  0
 10 11  2  0
 11 12  1  0
 12 13  2  0
 13 14  1  0
 14 15  1  0
 15 16  1  0
 16 17  2  0
 17 18  1  0
 18 19  2  0
 19 20  1  0
 20 21  2  0
 21 22  1  0
 22 23  2  0
 17 24  1  0
 12 25  1  0
 25 26  1  0
 26 27  1  0
 10 24  1  0
 24 14  2  0
 18 23  1  0
 27 25  1  0
  1 28  1  0
  1 29  1  0
  1 30  1  0
  3 31  1  0
  3 32  1  0
  3 33  1  0
  4 34  1  0
  5 35  1  0
  5 36  1  0
  7 37  1  0
 11 38  1  0
 19 39  1  0
 20 40  1  0
 21 41  1  0
 22 42  1  0
 23 43  1  0
 25 44  1  0
 26 45  1  0
 26 46  1  0
 27 47  1  0
 27 48  1  0
M  END
$$$$
