
     RDKit          3D

 48 51  0  0  0  0  0  0  0  0999 V2000
   -2.8590    2.1783   -4.1231 C   0  0  0  0  0  0  0  0  0  0  0  0
   -2.9230    0.7717   -3.5063 C   0  0  0  0  0  0  0  0  0  0  0  0
   -4.3891    0.4329   -3.1756 C   0  0  0  0  0  0  0  0  0  0  0  0
   -2.4293   -0.1452   -4.4539 O   0  0  0  0  0  0  0  0  0  0  0  0
   -2.0655    0.7167   -2.2220 C   0  0  0  0  0  0  0  0  0  0  0  0
   -0.7119    0.9581   -2.5360 O   0  0  0  0  0  0  0  0  0  0  0  0
    0.0136    0.6241   -1.4351 N   0  0  0  0  0  0  0  0  0  0  0  0
    0.6300   -0.6644   -1.3377 C   0  0  0  0  0  0  0  0  0  0  0  0
    0.4524   -1.5084   -2.2567 O   0  0  0  0  0  0  0  0  0  0  0  0
    1.5043   -0.9981   -0.1965 C   0  0  0  0  0  0  0  0  0  0  0  0
    2.4353   -0.0497    0.2824 C   0  0  0  0  0  0  0  0  0  0  0  0
    3.3782   -0.4105    1.2762 C   0  0  0  0  0  0  0  0  0  0  0  0
    3.4197   -1.6917    1.7520 N   0  0  0  0  0  0  0  0  0  0  0  0
    2.5139   -2.5911    1.3010 C   0  0  0  0  0  0  0  0  0  0  0  0
    2.4086   -3.8424    1.6637 O   0  0  0  0  0  0  0  0  0  0  0  0
    1.4010   -4.3988    1.0486 N   0  0  0  0  0  0  0  0  0  0  0  0
    0.8346   -3.4600    0.2512 C   0  0  0  0  0  0  0  0  0  0  0  0
   -0.4288   -3.6892   -0.4711 C   0  0  0  0  0  0  0  0  0  0  0  0
   -0.5908   -4.8466   -1.2482 C   0  0  0  0  0  0  0  0  0  0  0  0
   -1.7999   -5.0886   -1.9073 C   0  0  0  0  0  0  0  0  0  0  0  0
   -2.8602   -4.1881   -1.7780 C   0  0  0  0  0  0  0  0  0  0  0  0
   -2.7157   -3.0483   -0.9833 C   0  0  0  0  0  0  0  0  0  0  0  0
   -1.5066   -2.8004   -0.3267 C   0  0  0  0  0  0  0  0  0  0  0  0
    1.5550   -2.2778    0.3820 C   0  0  0  0  0  0  0  0  0  0  0  0
    4.3873    0.5930    1.7520 C   0  0  0  0  0  0  0  0  0  0  0  0
    3.7866    1.7658    2.5177 C   0  0  0  0  0  0  0  0  0  0  0  0
    4.5517    0.6850    3.2637 C   0  0  0  0  0  0  0  0  0  0  0  0
   -3.2250    2.9446   -3.4035 H   0  0  0  0  0  0  0  0  0  0  0  0
   -3.4847    2.2282   -5.0416 H   0  0  0  0  0  0  0  0  0  0  0  0
   -1.8157    2.4305   -4.4072 H   0  0  0  0  0  0  0  0  0  0  0  0
   -5.0058    0.4462   -4.1001 H   0  0  0  0  0  0  0  0  0  0  0  0
   -4.4635   -0.5801   -2.7232 H   0  0  0  0  0  0  0  0  0  0  0  0
   -4.8104    1.1699   -2.4565 H   0  0  0  0  0  0  0  0  0  0  0  0
   -2.4562   -1.0515   -4.0466 H   0  0  0  0  0  0  0  0  0  0  0  0
   -2.4235    1.4819   -1.4968 H   0  0  0  0  0  0  0  0  0  0  0  0
   -2.1906   -0.2870   -1.7562 H   0  0  0  0  0  0  0  0  0  0  0  0
    0.1557    1.3361   -0.6845 H   0  0  0  0  0  0  0  0  0  0  0  0
    2.4618    0.9489   -0.1370 H   0  0  0  0  0  0  0  0  0  0  0  0
    0.2211   -5.5547   -1.3512 H   0  0  0  0  0  0  0  0  0  0  0  0
   -1.9169   -5.9766   -2.5142 H   0  0  0  0  0  0  0  0  0  0  0  0
   -3.7969   -4.3789   -2.2847 H   0  0  0  0  0  0  0  0  0  0  0  0
   -3.5424   -2.3596   -0.8713 H   0  0  0  0  0  0  0  0  0  0  0  0
   -1.4158   -1.9233    0.3012 H   0  0  0  0  0  0  0  0  0  0  0  0
    5.2788    0.8361    1.1317 H   0  0  0  0  0  0  0  0  0  0  0  0
    4.3486    2.7200    2.4208 H   0  0  0  0  0  0  0  0  0  0  0  0
    2.6919    1.7332    2.6948 H   0  0  0  0  0  0  0  0  0  0  0  0
    3.9065    0.0112    3.8731 H   0  0  0  0  0  0  0  0  0  0  0  0
    5.5656    0.9954    3.5938 H   0  0  0  0  0  0  0  0  0  0  0  0
  1  2  1  0
  2  3  1  0
  2  4  1  0
  2  5  1  0
  5  6  1  0
  6  7  1  0
  7  8  1  0
  8  9  2  0
  8 10  1  0
 10 11  2  0
 11 12  1  0
 12 13  2  0
 13 14  1  0
 14 15  1  0
 15 16  1  0
 16 17  2  0
 17 18  1  0
 18 19  2  0
 19 20  1  0
 20 21  2  0
 21 22  1  0
 22 23  2  0
 17 24  1  0
 12 25  1  0
 25 26  1  0
 26 27  1  0
 10 24  1  0
 24 14  2  0
 18 23  1  0
 27 25  1  0
  1 28  1  0
  1 29  1  0
  1 30  1  0
  3 31  1  0
  3 32  1  0
  3 33  1  0
  4 34  1  0
  5 35  1  0
  5 36  1  0
  7 37  1  0
 11 38  1  0
 19 39  1  0
 20 40  1  0
 21 41  1  0
 22 42  1  0
 23 43  1  0
 25 44  1  0
 26 45  1  0
 26 46  1  0
 27 47  1  0
 27 48  1  0
M  END
$$$$
