
     RDKit          3D

 52 56  0  0  0  0  0  0  0  0999 V2000
    0.9398   -2.2884    2.8573 O   0  0  0  0  0  0  0  0  0  0  0  0
    0.0765   -1.7549    2.1088 C   0  0  0  0  0  0  0  0  0  0  0  0
    0.4776   -0.8714    1.0486 N   0  0  0  0  0  0  0  0  0  0  0  0
    1.8533   -0.6353    0.7035 C   0  0  0  0  0  0  0  0  0  0  0  0
    2.8412   -1.5152    1.0140 N   0  0  0  0  0  0  0  0  0  0  0  0
    3.9299   -0.9582    0.4601 C   0  0  0  0  0  0  0  0  0  0  0  0
    5.2291   -1.4603    0.4714 C   0  0  0  0  0  0  0  0  0  0  0  0
    6.2243   -0.7189   -0.1894 C   0  0  0  0  0  0  0  0  0  0  0  0
    5.8986    0.4903   -0.8415 C   0  0  0  0  0  0  0  0  0  0  0  0
    4.5758    0.9687   -0.8375 C   0  0  0  0  0  0  0  0  0  0  0  0
    3.6076    0.2128   -0.1654 C   0  0  0  0  0  0  0  0  0  0  0  0
    2.2843    0.4433   -0.0147 N   0  0  0  0  0  0  0  0  0  0  0  0
    1.4854    1.5956   -0.4787 C   0  0  0  0  0  0  0  0  0  0  0  0
    1.4179    1.6719   -2.0017 C   0  0  0  0  0  0  0  0  0  0  0  0
    1.3480    3.1540   -2.3224 C   0  0  0  0  0  0  0  0  0  0  0  0
    2.1075    3.8565   -1.2064 C   0  0  0  0  0  0  0  0  0  0  0  0
    2.0370    2.9408    0.0133 C   0  0  0  0  0  0  0  0  0  0  0  0
   -1.3501   -2.0294    2.3452 C   0  0  0  0  0  0  0  0  0  0  0  0
   -1.8732   -2.8393    3.3290 C   0  0  0  0  0  0  0  0  0  0  0  0
   -3.1762   -2.8201    3.2006 O   0  0  0  0  0  0  0  0  0  0  0  0
   -3.4578   -2.0308    2.1871 C   0  0  0  0  0  0  0  0  0  0  0  0
   -2.3522   -1.5123    1.6107 N   0  0  0  0  0  0  0  0  0  0  0  0
   -4.8651   -1.7768    1.7091 C   0  0  0  0  0  0  0  0  0  0  0  0
   -5.2419   -2.7268    0.5596 C   0  0  0  0  0  0  0  0  0  0  0  0
   -4.6741   -2.2306   -0.7759 C   0  0  0  0  0  0  0  0  0  0  0  0
   -5.1286   -0.9204   -1.0553 O   0  0  0  0  0  0  0  0  0  0  0  0
   -4.5859   -0.0124   -0.1157 C   0  0  0  0  0  0  0  0  0  0  0  0
   -5.0983   -0.3066    1.3046 C   0  0  0  0  0  0  0  0  0  0  0  0
   -0.2710   -0.4205    0.4797 H   0  0  0  0  0  0  0  0  0  0  0  0
    5.4653   -2.3919    0.9690 H   0  0  0  0  0  0  0  0  0  0  0  0
    7.2447   -1.0791   -0.2011 H   0  0  0  0  0  0  0  0  0  0  0  0
    6.6707    1.0505   -1.3524 H   0  0  0  0  0  0  0  0  0  0  0  0
    4.3333    1.8872   -1.3489 H   0  0  0  0  0  0  0  0  0  0  0  0
    0.4444    1.5250   -0.1024 H   0  0  0  0  0  0  0  0  0  0  0  0
    0.5247    1.1367   -2.3909 H   0  0  0  0  0  0  0  0  0  0  0  0
    2.3231    1.2343   -2.4730 H   0  0  0  0  0  0  0  0  0  0  0  0
    1.7918    3.3746   -3.3176 H   0  0  0  0  0  0  0  0  0  0  0  0
    0.2857    3.4856   -2.3139 H   0  0  0  0  0  0  0  0  0  0  0  0
    1.6618    4.8518   -0.9893 H   0  0  0  0  0  0  0  0  0  0  0  0
    3.1672    4.0002   -1.5102 H   0  0  0  0  0  0  0  0  0  0  0  0
    3.0361    2.8481    0.4885 H   0  0  0  0  0  0  0  0  0  0  0  0
    1.3485    3.3770    0.7705 H   0  0  0  0  0  0  0  0  0  0  0  0
   -1.3293   -3.3987    4.0794 H   0  0  0  0  0  0  0  0  0  0  0  0
   -5.5391   -1.9985    2.5662 H   0  0  0  0  0  0  0  0  0  0  0  0
   -6.3501   -2.7721    0.4768 H   0  0  0  0  0  0  0  0  0  0  0  0
   -4.8780   -3.7573    0.7667 H   0  0  0  0  0  0  0  0  0  0  0  0
   -5.0335   -2.9040   -1.5824 H   0  0  0  0  0  0  0  0  0  0  0  0
   -3.5617   -2.2862   -0.7835 H   0  0  0  0  0  0  0  0  0  0  0  0
   -3.4746   -0.0099   -0.1574 H   0  0  0  0  0  0  0  0  0  0  0  0
   -4.9098    1.0121   -0.3965 H   0  0  0  0  0  0  0  0  0  0  0  0
   -6.1910   -0.0995    1.3300 H   0  0  0  0  0  0  0  0  0  0  0  0
   -4.6121    0.3800    2.0318 H   0  0  0  0  0  0  0  0  0  0  0  0
  1  2  2  0
  2  3  1  0
  3  4  1  0
  4  5  2  0
  5  6  1  0
  6  7  2  0
  7  8  1  0
  8  9  2  0
  9 10  1  0
 10 11  2  0
 11 12  1  0
 12 13  1  0
 13 14  1  0
 14 15  1  0
 15 16  1  0
 16 17  1  0
  2 18  1  0
 18 19  2  0
 19 20  1  0
 20 21  1  0
 21 22  2  0
 21 23  1  0
 23 24  1  0
 24 25  1  0
 25 26  1  0
 26 27  1  0
 27 28  1  0
 12  4  1  0
  6 11  1  0
 17 13  1  0
 22 18  1  0
 28 23  1  0
  3 29  1  0
  7 30  1  0
  8 31  1  0
  9 32  1  0
 10 33  1  0
 13 34  1  0
 14 35  1  0
 14 36  1  0
 15 37  1  0
 15 38  1  0
 16 39  1  0
 16 40  1  0
 17 41  1  0
 17 42  1  0
 19 43  1  0
 23 44  1  0
 24 45  1  0
 24 46  1  0
 25 47  1  0
 25 48  1  0
 27 49  1  0
 27 50  1  0
 28 51  1  0
 28 52  1  0
M  END
$$$$
