
     RDKit          3D

 45 47  0  0  0  0  0  0  0  0999 V2000
    0.0076   -3.2533   -0.2299 C   0  0  0  0  0  0  0  0  0  0  0  0
   -0.4131   -2.1840    0.7825 C   0  0  0  0  0  0  0  0  0  0  0  0
    0.6368   -1.1115    0.9156 C   0  0  0  0  0  0  0  0  0  0  0  0
    1.1702   -0.9137    2.0410 O   0  0  0  0  0  0  0  0  0  0  0  0
    1.0259   -0.3162   -0.2179 N   0  0  0  0  0  0  0  0  0  0  0  0
    2.0170    0.7687   -0.1361 C   0  0  0  0  0  0  0  0  0  0  0  0
    1.5257    1.9759    0.7009 C   0  0  0  0  0  0  0  0  0  0  0  0
    0.1507    2.4414    0.2850 C   0  0  0  0  0  0  0  0  0  0  0  0
   -0.0080    3.3363   -0.7871 C   0  0  0  0  0  0  0  0  0  0  0  0
   -1.2854    3.7488   -1.1790 C   0  0  0  0  0  0  0  0  0  0  0  0
   -2.4124    3.2799   -0.4998 C   0  0  0  0  0  0  0  0  0  0  0  0
   -2.2641    2.3976    0.5726 C   0  0  0  0  0  0  0  0  0  0  0  0
   -0.9901    1.9723    0.9600 C   0  0  0  0  0  0  0  0  0  0  0  0
    2.5868    1.1488   -1.5129 C   0  0  0  0  0  0  0  0  0  0  0  0
    3.9547    0.6302   -1.0923 C   0  0  0  0  0  0  0  0  0  0  0  0
    3.4036    0.2562    0.2761 C   0  0  0  0  0  0  0  0  0  0  0  0
   -1.7007   -1.5918    0.4106 N   0  0  0  0  0  0  0  0  0  0  0  0
   -2.7587   -1.4325    1.2297 C   0  0  0  0  0  0  0  0  0  0  0  0
   -3.7697   -0.8157    0.5247 C   0  0  0  0  0  0  0  0  0  0  0  0
   -3.2338   -0.6057   -0.7331 C   0  0  0  0  0  0  0  0  0  0  0  0
   -1.9802   -1.0951   -0.7851 N   0  0  0  0  0  0  0  0  0  0  0  0
   -3.9413    0.0018   -1.9017 C   0  0  0  0  0  0  0  0  0  0  0  0
   -3.0229    0.5857   -2.7551 F   0  0  0  0  0  0  0  0  0  0  0  0
   -4.8305    0.9691   -1.4696 F   0  0  0  0  0  0  0  0  0  0  0  0
   -4.6330   -0.9827   -2.5815 F   0  0  0  0  0  0  0  0  0  0  0  0
    0.1176   -2.8253   -1.2483 H   0  0  0  0  0  0  0  0  0  0  0  0
   -0.7596   -4.0556   -0.2665 H   0  0  0  0  0  0  0  0  0  0  0  0
    0.9751   -3.7068    0.0747 H   0  0  0  0  0  0  0  0  0  0  0  0
   -0.5210   -2.6953    1.7663 H   0  0  0  0  0  0  0  0  0  0  0  0
    0.5556   -0.4933   -1.1329 H   0  0  0  0  0  0  0  0  0  0  0  0
    2.2450    2.8204    0.6161 H   0  0  0  0  0  0  0  0  0  0  0  0
    1.5118    1.6947    1.7759 H   0  0  0  0  0  0  0  0  0  0  0  0
    0.8533    3.7233   -1.3146 H   0  0  0  0  0  0  0  0  0  0  0  0
   -1.4011    4.4366   -2.0066 H   0  0  0  0  0  0  0  0  0  0  0  0
   -3.4002    3.6020   -0.8027 H   0  0  0  0  0  0  0  0  0  0  0  0
   -3.1376    2.0392    1.1012 H   0  0  0  0  0  0  0  0  0  0  0  0
   -0.8940    1.2818    1.7884 H   0  0  0  0  0  0  0  0  0  0  0  0
    2.6154    2.2406   -1.7133 H   0  0  0  0  0  0  0  0  0  0  0  0
    2.1668    0.5659   -2.3614 H   0  0  0  0  0  0  0  0  0  0  0  0
    4.2735   -0.2578   -1.6810 H   0  0  0  0  0  0  0  0  0  0  0  0
    4.7194    1.4358   -1.0382 H   0  0  0  0  0  0  0  0  0  0  0  0
    3.4448   -0.8417    0.4497 H   0  0  0  0  0  0  0  0  0  0  0  0
    3.8762    0.8461    1.0924 H   0  0  0  0  0  0  0  0  0  0  0  0
   -2.7958   -1.7436    2.2657 H   0  0  0  0  0  0  0  0  0  0  0  0
   -4.7561   -0.5504    0.8810 H   0  0  0  0  0  0  0  0  0  0  0  0
  1  2  1  0
  2  3  1  0
  3  4  2  0
  3  5  1  0
  5  6  1  0
  6  7  1  0
  7  8  1  0
  8  9  2  0
  9 10  1  0
 10 11  2  0
 11 12  1  0
 12 13  2  0
  6 14  1  0
 14 15  1  0
 15 16  1  0
  2 17  1  0
 17 18  1  0
 18 19  2  0
 19 20  1  0
 20 21  2  0
 20 22  1  0
 22 23  1  0
 22 24  1  0
 22 25  1  0
 16  6  1  0
  8 13  1  0
 21 17  1  0
  1 26  1  0
  1 27  1  0
  1 28  1  0
  2 29  1  0
  5 30  1  0
  7 31  1  0
  7 32  1  0
  9 33  1  0
 10 34  1  0
 11 35  1  0
 12 36  1  0
 13 37  1  0
 14 38  1  0
 14 39  1  0
 15 40  1  0
 15 41  1  0
 16 42  1  0
 16 43  1  0
 18 44  1  0
 19 45  1  0
M  END
$$$$
