
     RDKit          3D

 42 46  0  0  0  0  0  0  0  0999 V2000
   -1.5285   -0.6220    5.6740 C   0  0  0  0  0  0  0  0  0  0  0  0
   -0.3365   -0.0475    5.2202 C   0  0  0  0  0  0  0  0  0  0  0  0
   -0.1226    0.1399    3.8508 C   0  0  0  0  0  0  0  0  0  0  0  0
   -1.1028   -0.2479    2.9304 C   0  0  0  0  0  0  0  0  0  0  0  0
   -0.8985   -0.0678    1.5982 N   0  0  0  0  0  0  0  0  0  0  0  0
   -1.8251   -0.4319    0.6698 C   0  0  0  0  0  0  0  0  0  0  0  0
   -3.0337   -1.0126    1.0846 C   0  0  0  0  0  0  0  0  0  0  0  0
   -3.2726   -1.2097    2.4465 C   0  0  0  0  0  0  0  0  0  0  0  0
   -2.3071   -0.8287    3.3861 C   0  0  0  0  0  0  0  0  0  0  0  0
   -2.5139   -1.0131    4.7614 C   0  0  0  0  0  0  0  0  0  0  0  0
   -1.5347   -0.2116   -0.7539 C   0  0  0  0  0  0  0  0  0  0  0  0
   -2.3569   -0.5460   -1.7698 N   0  0  0  0  0  0  0  0  0  0  0  0
   -1.7358   -0.1944   -2.8855 N   0  0  0  0  0  0  0  0  0  0  0  0
   -0.5629    0.3404   -2.5012 C   0  0  0  0  0  0  0  0  0  0  0  0
    0.4225    0.8384   -3.4146 N   0  0  0  0  0  0  0  0  0  0  0  0
    1.6771    1.4612   -2.9766 C   0  0  0  0  0  0  0  0  0  0  0  0
    1.3821    2.8326   -2.3340 C   0  0  0  0  0  0  0  0  0  0  0  0
    2.6406    3.3952   -1.6745 C   0  0  0  0  0  0  0  0  0  0  0  0
    3.1397    2.4720   -0.7095 O   0  0  0  0  0  0  0  0  0  0  0  0
    3.1562    1.0933   -0.9464 C   0  0  0  0  0  0  0  0  0  0  0  0
    3.8631    0.2546   -0.0783 C   0  0  0  0  0  0  0  0  0  0  0  0
    3.9153   -1.1207   -0.3182 C   0  0  0  0  0  0  0  0  0  0  0  0
    3.2667   -1.6620   -1.4308 C   0  0  0  0  0  0  0  0  0  0  0  0
    2.5489   -0.8324   -2.2970 C   0  0  0  0  0  0  0  0  0  0  0  0
    2.4573    0.5482   -2.0444 C   0  0  0  0  0  0  0  0  0  0  0  0
   -0.4294    0.3352   -1.1977 O   0  0  0  0  0  0  0  0  0  0  0  0
   -1.6886   -0.7646    6.7349 H   0  0  0  0  0  0  0  0  0  0  0  0
    0.4225    0.2529    5.9309 H   0  0  0  0  0  0  0  0  0  0  0  0
    0.8034    0.5852    3.5082 H   0  0  0  0  0  0  0  0  0  0  0  0
   -3.7849   -1.3106    0.3639 H   0  0  0  0  0  0  0  0  0  0  0  0
   -4.2066   -1.6581    2.7635 H   0  0  0  0  0  0  0  0  0  0  0  0
   -3.4318   -1.4569    5.1279 H   0  0  0  0  0  0  0  0  0  0  0  0
    0.2410    0.7463   -4.4395 H   0  0  0  0  0  0  0  0  0  0  0  0
    2.3136    1.6376   -3.8721 H   0  0  0  0  0  0  0  0  0  0  0  0
    0.5907    2.7384   -1.5596 H   0  0  0  0  0  0  0  0  0  0  0  0
    1.0217    3.5403   -3.1117 H   0  0  0  0  0  0  0  0  0  0  0  0
    2.4086    4.3589   -1.1742 H   0  0  0  0  0  0  0  0  0  0  0  0
    3.4196    3.5768   -2.4464 H   0  0  0  0  0  0  0  0  0  0  0  0
    4.3822    0.6714    0.7754 H   0  0  0  0  0  0  0  0  0  0  0  0
    4.4681   -1.7659    0.3522 H   0  0  0  0  0  0  0  0  0  0  0  0
    3.3205   -2.7258   -1.6225 H   0  0  0  0  0  0  0  0  0  0  0  0
    2.0562   -1.2683   -3.1570 H   0  0  0  0  0  0  0  0  0  0  0  0
  1  2  2  0
  2  3  1  0
  3  4  2  0
  4  5  1  0
  5  6  2  0
  6  7  1  0
  7  8  2  0
  8  9  1  0
  9 10  2  0
  6 11  1  0
 11 12  2  0
 12 13  1  0
 13 14  2  0
 14 15  1  0
 15 16  1  0
 16 17  1  0
 17 18  1  0
 18 19  1  0
 19 20  1  0
 20 21  2  0
 21 22  1  0
 22 23  2  0
 23 24  1  0
 24 25  2  0
 14 26  1  0
  1 10  1  0
  4  9  1  0
 26 11  1  0
 25 16  1  0
 20 25  1  0
  1 27  1  0
  2 28  1  0
  3 29  1  0
  7 30  1  0
  8 31  1  0
 10 32  1  0
 15 33  1  0
 16 34  1  0
 17 35  1  0
 17 36  1  0
 18 37  1  0
 18 38  1  0
 21 39  1  0
 22 40  1  0
 23 41  1  0
 24 42  1  0
M  END
$$$$
