
     RDKit          3D

 59 61  0  0  0  0  0  0  0  0999 V2000
   -4.6628   -2.4643   -2.5703 C   0  0  0  0  0  0  0  0  0  0  0  0
   -4.0668   -1.5321   -1.5237 C   0  0  0  0  0  0  0  0  0  0  0  0
   -2.5985   -1.6959   -1.4934 N   0  0  0  0  0  0  0  0  0  0  0  0
   -1.9807   -1.9888   -0.1722 C   0  0  0  0  0  0  0  0  0  0  0  0
   -2.1704   -3.4823    0.2029 C   0  0  0  0  0  0  0  0  0  0  0  0
   -3.4617   -3.7896    0.9848 C   0  0  0  0  0  0  0  0  0  0  0  0
   -3.7992   -2.7576    2.0846 C   0  0  0  0  0  0  0  0  0  0  0  0
   -2.7082   -1.7005    2.2827 C   0  0  0  0  0  0  0  0  0  0  0  0
   -2.3821   -0.9967    0.9615 C   0  0  0  0  0  0  0  0  0  0  0  0
   -1.7678   -0.4317   -2.3816 S   0  0  0  0  0  0  0  0  0  0  0  0
   -0.3000   -0.7553   -2.4467 O   0  0  0  0  0  0  0  0  0  0  0  0
   -2.3054   -0.3886   -3.7857 O   0  0  0  0  0  0  0  0  0  0  0  0
   -1.9917    1.1862   -1.6378 C   0  0  0  0  0  0  0  0  0  0  0  0
   -1.2476    2.2768   -2.4159 C   0  0  0  0  0  0  0  0  0  0  0  0
    0.2009    2.1231   -2.2865 N   0  0  0  0  0  0  0  0  0  0  0  0
    0.8990    2.3880   -1.0623 C   0  0  0  0  0  0  0  0  0  0  0  0
    0.2853    2.9012   -0.0881 O   0  0  0  0  0  0  0  0  0  0  0  0
    2.2853    2.0336   -0.9454 N   0  0  0  0  0  0  0  0  0  0  0  0
    3.0831    2.2586    0.2257 C   0  0  0  0  0  0  0  0  0  0  0  0
    2.8690    3.2136    1.2073 C   0  0  0  0  0  0  0  0  0  0  0  0
    3.9233    3.0397    2.0787 C   0  0  0  0  0  0  0  0  0  0  0  0
    4.6991    2.0324    1.6264 N   0  0  0  0  0  0  0  0  0  0  0  0
    4.2087    1.5671    0.4873 N   0  0  0  0  0  0  0  0  0  0  0  0
    5.9277    1.5642    2.2089 C   0  0  0  0  0  0  0  0  0  0  0  0
    7.0176    1.2897    1.3663 C   0  0  0  0  0  0  0  0  0  0  0  0
    8.2251    0.8243    1.8925 C   0  0  0  0  0  0  0  0  0  0  0  0
    8.3560    0.6170    3.2653 C   0  0  0  0  0  0  0  0  0  0  0  0
    7.2796    0.8691    4.1184 C   0  0  0  0  0  0  0  0  0  0  0  0
    7.4222    0.6383    5.4481 F   0  0  0  0  0  0  0  0  0  0  0  0
    6.0589    1.3370    3.6009 C   0  0  0  0  0  0  0  0  0  0  0  0
    4.9433    1.5106    4.5015 C   0  0  0  0  0  0  0  0  0  0  0  0
    4.0517    1.6507    5.2251 N   0  0  0  0  0  0  0  0  0  0  0  0
   -5.7685   -2.3634   -2.5737 H   0  0  0  0  0  0  0  0  0  0  0  0
   -4.3998   -3.5178   -2.3363 H   0  0  0  0  0  0  0  0  0  0  0  0
   -4.2785   -2.2089   -3.5802 H   0  0  0  0  0  0  0  0  0  0  0  0
   -4.3623   -0.4885   -1.7608 H   0  0  0  0  0  0  0  0  0  0  0  0
   -4.5351   -1.7738   -0.5516 H   0  0  0  0  0  0  0  0  0  0  0  0
   -0.8767   -1.8890   -0.2868 H   0  0  0  0  0  0  0  0  0  0  0  0
   -2.1354   -4.1115   -0.7134 H   0  0  0  0  0  0  0  0  0  0  0  0
   -1.3091   -3.7997    0.8339 H   0  0  0  0  0  0  0  0  0  0  0  0
   -3.3486   -4.7939    1.4508 H   0  0  0  0  0  0  0  0  0  0  0  0
   -4.3163   -3.8768    0.2804 H   0  0  0  0  0  0  0  0  0  0  0  0
   -4.7543   -2.2459    1.8320 H   0  0  0  0  0  0  0  0  0  0  0  0
   -3.9627   -3.2845    3.0484 H   0  0  0  0  0  0  0  0  0  0  0  0
   -3.0574   -0.9484    3.0248 H   0  0  0  0  0  0  0  0  0  0  0  0
   -1.7908   -2.1793    2.6918 H   0  0  0  0  0  0  0  0  0  0  0  0
   -1.5332   -0.3068    1.1564 H   0  0  0  0  0  0  0  0  0  0  0  0
   -3.2421   -0.3575    0.6736 H   0  0  0  0  0  0  0  0  0  0  0  0
   -1.6367    1.1711   -0.5911 H   0  0  0  0  0  0  0  0  0  0  0  0
   -3.0727    1.4335   -1.6287 H   0  0  0  0  0  0  0  0  0  0  0  0
   -1.5348    2.2310   -3.4877 H   0  0  0  0  0  0  0  0  0  0  0  0
   -1.5484    3.2768   -2.0364 H   0  0  0  0  0  0  0  0  0  0  0  0
    0.7463    1.8212   -3.1248 H   0  0  0  0  0  0  0  0  0  0  0  0
    2.7130    1.4760   -1.7184 H   0  0  0  0  0  0  0  0  0  0  0  0
    2.0941    3.9642    1.2663 H   0  0  0  0  0  0  0  0  0  0  0  0
    4.1269    3.6396    2.9555 H   0  0  0  0  0  0  0  0  0  0  0  0
    6.9340    1.4451    0.2988 H   0  0  0  0  0  0  0  0  0  0  0  0
    9.0573    0.6202    1.2334 H   0  0  0  0  0  0  0  0  0  0  0  0
    9.2914    0.2502    3.6679 H   0  0  0  0  0  0  0  0  0  0  0  0
  1  2  1  0
  2  3  1  0
  3  4  1  0
  4  5  1  0
  5  6  1  0
  6  7  1  0
  7  8  1  0
  8  9  1  0
  3 10  1  0
 10 11  2  0
 10 12  2  0
 10 13  1  0
 13 14  1  0
 14 15  1  0
 15 16  1  0
 16 17  2  0
 16 18  1  0
 18 19  1  0
 19 20  1  0
 20 21  2  0
 21 22  1  0
 22 23  1  0
 22 24  1  0
 24 25  2  0
 25 26  1  0
 26 27  2  0
 27 28  1  0
 28 29  1  0
 28 30  2  0
 30 31  1  0
 31 32  3  0
  9  4  1  0
 19 23  2  0
 24 30  1  0
  1 33  1  0
  1 34  1  0
  1 35  1  0
  2 36  1  0
  2 37  1  0
  4 38  1  0
  5 39  1  0
  5 40  1  0
  6 41  1  0
  6 42  1  0
  7 43  1  0
  7 44  1  0
  8 45  1  0
  8 46  1  0
  9 47  1  0
  9 48  1  0
 13 49  1  0
 13 50  1  0
 14 51  1  0
 14 52  1  0
 15 53  1  0
 18 54  1  0
 20 55  1  0
 21 56  1  0
 25 57  1  0
 26 58  1  0
 27 59  1  0
M  END
$$$$
