
     RDKit          3D

 46 49  0  0  0  0  0  0  0  0999 V2000
    6.6848    0.5844   -2.4709 C   0  0  0  0  0  0  0  0  0  0  0  0
    5.9090    1.1430   -3.6619 C   0  0  0  0  0  0  0  0  0  0  0  0
    4.4664    1.5409   -3.2994 C   0  0  0  0  0  0  0  0  0  0  0  0
    3.6669    0.6592   -4.2073 C   0  0  0  0  0  0  0  0  0  0  0  0
    4.4142   -0.0963   -4.9341 N   0  0  0  0  0  0  0  0  0  0  0  0
    5.7325    0.1365   -4.6450 O   0  0  0  0  0  0  0  0  0  0  0  0
    2.1650    0.6459   -4.3494 C   0  0  0  0  0  0  0  0  0  0  0  0
    1.3716    1.3618   -3.2938 C   0  0  0  0  0  0  0  0  0  0  0  0
    0.7519    0.1536   -2.7211 N   0  0  0  0  0  0  0  0  0  0  0  0
    1.5265   -0.5689   -3.7464 C   0  0  0  0  0  0  0  0  0  0  0  0
   -0.1652   -0.1609   -1.6755 C   0  0  0  0  0  0  0  0  0  0  0  0
   -0.6350    0.7690   -0.9686 O   0  0  0  0  0  0  0  0  0  0  0  0
   -0.5126   -1.5299   -1.4218 N   0  0  0  0  0  0  0  0  0  0  0  0
   -1.5417   -1.9620   -0.5193 C   0  0  0  0  0  0  0  0  0  0  0  0
   -2.5729   -1.1949   -0.0018 C   0  0  0  0  0  0  0  0  0  0  0  0
   -3.2989   -2.0845    0.7685 C   0  0  0  0  0  0  0  0  0  0  0  0
   -4.5220   -1.7476    1.5312 C   0  0  0  0  0  0  0  0  0  0  0  0
   -5.4946   -0.9076    0.9614 C   0  0  0  0  0  0  0  0  0  0  0  0
   -6.6463   -0.5713    1.6794 C   0  0  0  0  0  0  0  0  0  0  0  0
   -6.8320   -1.0603    2.9751 C   0  0  0  0  0  0  0  0  0  0  0  0
   -7.9485   -0.7318    3.6706 F   0  0  0  0  0  0  0  0  0  0  0  0
   -5.8624   -1.8815    3.5565 C   0  0  0  0  0  0  0  0  0  0  0  0
   -4.7095   -2.2207    2.8414 C   0  0  0  0  0  0  0  0  0  0  0  0
   -2.7285   -3.3087    0.6701 N   0  0  0  0  0  0  0  0  0  0  0  0
   -3.1862   -4.5575    1.2714 C   0  0  0  0  0  0  0  0  0  0  0  0
   -1.6606   -3.2388   -0.1088 N   0  0  0  0  0  0  0  0  0  0  0  0
    7.7014    0.2794   -2.7972 H   0  0  0  0  0  0  0  0  0  0  0  0
    6.7821    1.3618   -1.6836 H   0  0  0  0  0  0  0  0  0  0  0  0
    6.1636   -0.3013   -2.0481 H   0  0  0  0  0  0  0  0  0  0  0  0
    6.4540    2.0050   -4.1046 H   0  0  0  0  0  0  0  0  0  0  0  0
    4.2225    1.3244   -2.2367 H   0  0  0  0  0  0  0  0  0  0  0  0
    4.2774    2.6101   -3.5353 H   0  0  0  0  0  0  0  0  0  0  0  0
    1.8110    0.8594   -5.3819 H   0  0  0  0  0  0  0  0  0  0  0  0
    0.5951    2.0259   -3.7344 H   0  0  0  0  0  0  0  0  0  0  0  0
    1.9674    1.8951   -2.5239 H   0  0  0  0  0  0  0  0  0  0  0  0
    0.8478   -1.0877   -4.4591 H   0  0  0  0  0  0  0  0  0  0  0  0
    2.2442   -1.2740   -3.2686 H   0  0  0  0  0  0  0  0  0  0  0  0
    0.0454   -2.2705   -1.9028 H   0  0  0  0  0  0  0  0  0  0  0  0
   -2.7877   -0.1482   -0.1655 H   0  0  0  0  0  0  0  0  0  0  0  0
   -5.3687   -0.5232   -0.0432 H   0  0  0  0  0  0  0  0  0  0  0  0
   -7.3942    0.0693    1.2299 H   0  0  0  0  0  0  0  0  0  0  0  0
   -5.9991   -2.2496    4.5652 H   0  0  0  0  0  0  0  0  0  0  0  0
   -3.9564   -2.8294    3.3229 H   0  0  0  0  0  0  0  0  0  0  0  0
   -4.2958   -4.5951    1.2902 H   0  0  0  0  0  0  0  0  0  0  0  0
   -2.7863   -4.6456    2.3026 H   0  0  0  0  0  0  0  0  0  0  0  0
   -2.8213   -5.4205    0.6751 H   0  0  0  0  0  0  0  0  0  0  0  0
  1  2  1  0
  2  3  1  0
  3  4  1  0
  4  5  2  0
  5  6  1  0
  4  7  1  0
  7  8  1  0
  8  9  1  0
  9 10  1  0
  9 11  1  0
 11 12  2  0
 11 13  1  0
 13 14  1  0
 14 15  1  0
 15 16  2  0
 16 17  1  0
 17 18  2  0
 18 19  1  0
 19 20  2  0
 20 21  1  0
 20 22  1  0
 22 23  2  0
 16 24  1  0
 24 25  1  0
 24 26  1  0
  6  2  1  0
 10  7  1  0
 14 26  2  0
 17 23  1  0
  1 27  1  0
  1 28  1  0
  1 29  1  0
  2 30  1  0
  3 31  1  0
  3 32  1  0
  7 33  1  0
  8 34  1  0
  8 35  1  0
 10 36  1  0
 10 37  1  0
 13 38  1  0
 15 39  1  0
 18 40  1  0
 19 41  1  0
 22 42  1  0
 23 43  1  0
 25 44  1  0
 25 45  1  0
 25 46  1  0
M  END
$$$$
