
     RDKit          3D

 47 50  0  0  0  0  0  0  0  0999 V2000
   -0.2092    0.9084    3.0635 O   0  0  0  0  0  0  0  0  0  0  0  0
   -0.4325    0.4284    1.9183 C   0  0  0  0  0  0  0  0  0  0  0  0
   -0.5561    1.3036    0.7838 N   0  0  0  0  0  0  0  0  0  0  0  0
   -0.7518    2.7248    0.8850 C   0  0  0  0  0  0  0  0  0  0  0  0
   -1.5225    3.2865    1.9179 C   0  0  0  0  0  0  0  0  0  0  0  0
   -1.7227    4.6675    1.9763 C   0  0  0  0  0  0  0  0  0  0  0  0
   -1.1670    5.5007    1.0032 C   0  0  0  0  0  0  0  0  0  0  0  0
   -0.4049    4.9581   -0.0435 C   0  0  0  0  0  0  0  0  0  0  0  0
   -0.2153    3.5650   -0.1024 C   0  0  0  0  0  0  0  0  0  0  0  0
    0.1692    5.8628   -1.1124 C   0  0  0  0  0  0  0  0  0  0  0  0
   -0.5072    5.6378   -2.4897 C   0  0  0  0  0  0  0  0  0  0  0  0
    0.5732    5.1105   -3.4485 C   0  0  0  0  0  0  0  0  0  0  0  0
    1.8044    5.1621   -2.6366 C   0  0  0  0  0  0  0  0  0  0  0  0
    2.9456    4.8528   -3.0689 O   0  0  0  0  0  0  0  0  0  0  0  0
    1.5796    5.5818   -1.3101 N   0  0  0  0  0  0  0  0  0  0  0  0
   -0.5266   -1.0373    1.7436 C   0  0  0  0  0  0  0  0  0  0  0  0
   -0.3482   -1.9103    2.8290 C   0  0  0  0  0  0  0  0  0  0  0  0
   -0.4480   -3.2881    2.6274 C   0  0  0  0  0  0  0  0  0  0  0  0
   -0.7109   -3.7954    1.3529 C   0  0  0  0  0  0  0  0  0  0  0  0
   -0.9045   -2.8916    0.2957 C   0  0  0  0  0  0  0  0  0  0  0  0
   -0.8059   -1.5537    0.5148 N   0  0  0  0  0  0  0  0  0  0  0  0
   -0.8208   -5.1832    1.1818 O   0  0  0  0  0  0  0  0  0  0  0  0
   -0.5124   -5.8849    0.0071 C   0  0  0  0  0  0  0  0  0  0  0  0
    0.5035   -5.4600   -0.8699 C   0  0  0  0  0  0  0  0  0  0  0  0
    0.7918   -6.1978   -2.0224 C   0  0  0  0  0  0  0  0  0  0  0  0
    0.0798   -7.3675   -2.3016 C   0  0  0  0  0  0  0  0  0  0  0  0
   -0.9163   -7.8050   -1.4244 C   0  0  0  0  0  0  0  0  0  0  0  0
   -1.2064   -7.0694   -0.2710 C   0  0  0  0  0  0  0  0  0  0  0  0
   -0.4038    0.9019   -0.1689 H   0  0  0  0  0  0  0  0  0  0  0  0
   -1.9932    2.6591    2.6629 H   0  0  0  0  0  0  0  0  0  0  0  0
   -2.3198    5.0926    2.7729 H   0  0  0  0  0  0  0  0  0  0  0  0
   -1.3394    6.5682    1.0627 H   0  0  0  0  0  0  0  0  0  0  0  0
    0.3568    3.1326   -0.9144 H   0  0  0  0  0  0  0  0  0  0  0  0
    0.0623    6.9310   -0.8193 H   0  0  0  0  0  0  0  0  0  0  0  0
   -1.3549    4.9192   -2.4321 H   0  0  0  0  0  0  0  0  0  0  0  0
   -0.9048    6.6035   -2.8723 H   0  0  0  0  0  0  0  0  0  0  0  0
    0.6698    5.7606   -4.3444 H   0  0  0  0  0  0  0  0  0  0  0  0
    0.3606    4.0619   -3.7480 H   0  0  0  0  0  0  0  0  0  0  0  0
    2.3203    5.6812   -0.5803 H   0  0  0  0  0  0  0  0  0  0  0  0
   -0.1349   -1.5340    3.8217 H   0  0  0  0  0  0  0  0  0  0  0  0
   -0.3128   -3.9641    3.4621 H   0  0  0  0  0  0  0  0  0  0  0  0
   -1.1534   -3.2454   -0.6954 H   0  0  0  0  0  0  0  0  0  0  0  0
    1.0842   -4.5730   -0.6539 H   0  0  0  0  0  0  0  0  0  0  0  0
    1.5723   -5.8666   -2.6952 H   0  0  0  0  0  0  0  0  0  0  0  0
    0.3049   -7.9384   -3.1932 H   0  0  0  0  0  0  0  0  0  0  0  0
   -1.4623   -8.7151   -1.6370 H   0  0  0  0  0  0  0  0  0  0  0  0
   -1.9777   -7.4157    0.4052 H   0  0  0  0  0  0  0  0  0  0  0  0
  1  2  2  0
  2  3  1  0
  3  4  1  0
  4  5  2  0
  5  6  1  0
  6  7  2  0
  7  8  1  0
  8  9  2  0
  8 10  1  0
 10 11  1  0
 11 12  1  0
 12 13  1  0
 13 14  2  0
 13 15  1  0
  2 16  1  0
 16 17  2  0
 17 18  1  0
 18 19  2  0
 19 20  1  0
 20 21  2  0
 19 22  1  0
 22 23  1  0
 23 24  2  0
 24 25  1  0
 25 26  2  0
 26 27  1  0
 27 28  2  0
  4  9  1  0
 15 10  1  0
 16 21  1  0
 23 28  1  0
  3 29  1  0
  5 30  1  0
  6 31  1  0
  7 32  1  0
  9 33  1  0
 10 34  1  0
 11 35  1  0
 11 36  1  0
 12 37  1  0
 12 38  1  0
 15 39  1  0
 17 40  1  0
 18 41  1  0
 20 42  1  0
 24 43  1  0
 25 44  1  0
 26 45  1  0
 27 46  1  0
 28 47  1  0
M  END
$$$$
