
     RDKit          3D

 52 57  0  0  0  0  0  0  0  0999 V2000
    2.6598    5.6052    2.4810 C   0  0  0  0  0  0  0  0  0  0  0  0
    1.4904    4.7884    2.1835 N   0  0  0  0  0  0  0  0  0  0  0  0
    0.1254    5.2378    2.2115 C   0  0  0  0  0  0  0  0  0  0  0  0
   -0.2766    6.2587    2.8295 O   0  0  0  0  0  0  0  0  0  0  0  0
   -0.6974    4.3590    1.3846 C   0  0  0  0  0  0  0  0  0  0  0  0
   -2.0505    4.3288    1.0539 C   0  0  0  0  0  0  0  0  0  0  0  0
   -2.4857    3.3198    0.1648 C   0  0  0  0  0  0  0  0  0  0  0  0
   -1.5682    2.3826   -0.3788 C   0  0  0  0  0  0  0  0  0  0  0  0
   -0.1979    2.4492   -0.0306 C   0  0  0  0  0  0  0  0  0  0  0  0
    0.8344    1.6006   -0.5091 C   0  0  0  0  0  0  0  0  0  0  0  0
    2.1725    1.8235   -0.0746 C   0  0  0  0  0  0  0  0  0  0  0  0
    2.4876    2.8687    0.8228 C   0  0  0  0  0  0  0  0  0  0  0  0
    1.4461    3.6733    1.2843 C   0  0  0  0  0  0  0  0  0  0  0  0
    0.1685    3.4487    0.8576 C   0  0  0  0  0  0  0  0  0  0  0  0
    0.4878    0.2656   -1.6158 S   0  0  0  0  0  0  0  0  0  0  0  0
    1.7471   -0.5053   -1.9029 O   0  0  0  0  0  0  0  0  0  0  0  0
   -0.0333    0.8372   -2.9049 O   0  0  0  0  0  0  0  0  0  0  0  0
   -0.7036   -0.7988   -0.9056 N   0  0  0  0  0  0  0  0  0  0  0  0
   -0.2374   -1.2526    0.4228 C   0  0  0  0  0  0  0  0  0  0  0  0
   -1.1091   -2.3478    0.9975 C   0  0  0  0  0  0  0  0  0  0  0  0
   -1.9815   -2.0680    2.0623 C   0  0  0  0  0  0  0  0  0  0  0  0
   -2.7514   -3.0857    2.6297 C   0  0  0  0  0  0  0  0  0  0  0  0
   -2.6606   -4.3892    2.1395 C   0  0  0  0  0  0  0  0  0  0  0  0
   -1.8079   -4.6796    1.0720 C   0  0  0  0  0  0  0  0  0  0  0  0
   -1.0312   -3.6650    0.4857 C   0  0  0  0  0  0  0  0  0  0  0  0
   -0.1762   -3.9633   -0.6934 C   0  0  0  0  0  0  0  0  0  0  0  0
    0.6463   -5.1034   -0.6999 C   0  0  0  0  0  0  0  0  0  0  0  0
    1.4903   -5.3601   -1.7827 C   0  0  0  0  0  0  0  0  0  0  0  0
    1.5242   -4.4837   -2.8681 C   0  0  0  0  0  0  0  0  0  0  0  0
    0.7085   -3.3504   -2.8799 C   0  0  0  0  0  0  0  0  0  0  0  0
   -0.1488   -3.0807   -1.8006 C   0  0  0  0  0  0  0  0  0  0  0  0
   -1.0730   -1.8787   -1.8514 C   0  0  0  0  0  0  0  0  0  0  0  0
    2.4574    6.2482    3.3630 H   0  0  0  0  0  0  0  0  0  0  0  0
    3.5281    4.9541    2.7115 H   0  0  0  0  0  0  0  0  0  0  0  0
    2.8998    6.2454    1.6066 H   0  0  0  0  0  0  0  0  0  0  0  0
   -2.7428    5.0541    1.4606 H   0  0  0  0  0  0  0  0  0  0  0  0
   -3.5306    3.2666   -0.1116 H   0  0  0  0  0  0  0  0  0  0  0  0
   -1.9360    1.6329   -1.0652 H   0  0  0  0  0  0  0  0  0  0  0  0
    2.9737    1.1889   -0.4290 H   0  0  0  0  0  0  0  0  0  0  0  0
    3.5071    3.0320    1.1452 H   0  0  0  0  0  0  0  0  0  0  0  0
    0.8125   -1.6187    0.3702 H   0  0  0  0  0  0  0  0  0  0  0  0
   -0.2287   -0.3843    1.1163 H   0  0  0  0  0  0  0  0  0  0  0  0
   -2.0594   -1.0638    2.4605 H   0  0  0  0  0  0  0  0  0  0  0  0
   -3.4179   -2.8637    3.4531 H   0  0  0  0  0  0  0  0  0  0  0  0
   -3.2606   -5.1746    2.5807 H   0  0  0  0  0  0  0  0  0  0  0  0
   -1.7738   -5.6913    0.6873 H   0  0  0  0  0  0  0  0  0  0  0  0
    0.6527   -5.7827    0.1434 H   0  0  0  0  0  0  0  0  0  0  0  0
    2.1252   -6.2366   -1.7768 H   0  0  0  0  0  0  0  0  0  0  0  0
    2.1816   -4.6848   -3.7041 H   0  0  0  0  0  0  0  0  0  0  0  0
    0.7413   -2.6864   -3.7347 H   0  0  0  0  0  0  0  0  0  0  0  0
   -1.1452   -1.4835   -2.8880 H   0  0  0  0  0  0  0  0  0  0  0  0
   -2.1056   -2.2152   -1.6159 H   0  0  0  0  0  0  0  0  0  0  0  0
  1  2  1  0
  2  3  1  0
  3  4  2  0
  3  5  1  0
  5  6  2  0
  6  7  1  0
  7  8  2  0
  8  9  1  0
  9 10  2  0
 10 11  1  0
 11 12  2  0
 12 13  1  0
 13 14  2  0
 10 15  1  0
 15 16  2  0
 15 17  2  0
 15 18  1  0
 18 19  1  0
 19 20  1  0
 20 21  2  0
 21 22  1  0
 22 23  2  0
 23 24  1  0
 24 25  2  0
 25 26  1  0
 26 27  2  0
 27 28  1  0
 28 29  2  0
 29 30  1  0
 30 31  2  0
 31 32  1  0
 13  2  1  0
 14  5  1  0
 14  9  1  0
 32 18  1  0
 20 25  1  0
 26 31  1  0
  1 33  1  0
  1 34  1  0
  1 35  1  0
  6 36  1  0
  7 37  1  0
  8 38  1  0
 11 39  1  0
 12 40  1  0
 19 41  1  0
 19 42  1  0
 21 43  1  0
 22 44  1  0
 23 45  1  0
 24 46  1  0
 27 47  1  0
 28 48  1  0
 29 49  1  0
 30 50  1  0
 32 51  1  0
 32 52  1  0
M  END
$$$$
