
     RDKit          3D

 49 51  0  0  0  0  0  0  0  0999 V2000
    1.6675    0.3310    7.7530 C   0  0  0  0  0  0  0  0  0  0  0  0
    1.6976    0.6155    6.3580 O   0  0  0  0  0  0  0  0  0  0  0  0
    0.8421   -0.0019    5.4374 C   0  0  0  0  0  0  0  0  0  0  0  0
   -0.0790   -0.9160    5.8447 N   0  0  0  0  0  0  0  0  0  0  0  0
   -0.9144   -1.5170    4.9576 C   0  0  0  0  0  0  0  0  0  0  0  0
   -1.9577   -2.4688    5.4473 C   0  0  0  0  0  0  0  0  0  0  0  0
   -0.8377   -1.1847    3.6002 C   0  0  0  0  0  0  0  0  0  0  0  0
    0.1205   -0.2410    3.1810 C   0  0  0  0  0  0  0  0  0  0  0  0
    0.9287    0.3257    4.1229 N   0  0  0  0  0  0  0  0  0  0  0  0
    0.2654    0.1308    1.7864 N   0  0  0  0  0  0  0  0  0  0  0  0
   -0.6804   -0.3707    0.7729 C   0  0  0  0  0  0  0  0  0  0  0  0
   -0.4386    0.2397   -0.6148 C   0  0  0  0  0  0  0  0  0  0  0  0
    0.9940    0.2288   -0.9505 N   0  0  0  0  0  0  0  0  0  0  0  0
    1.9939    0.5458    0.0808 C   0  0  0  0  0  0  0  0  0  0  0  0
    1.3368    1.0529    1.3671 C   0  0  0  0  0  0  0  0  0  0  0  0
    1.4538   -0.0097   -2.2995 C   0  0  0  0  0  0  0  0  0  0  0  0
    2.6158   -0.4762   -2.4800 O   0  0  0  0  0  0  0  0  0  0  0  0
    0.5858    0.2814   -3.5100 C   0  0  0  0  0  0  0  0  0  0  0  0
    1.2926    1.2618   -4.4796 C   0  0  0  0  0  0  0  0  0  0  0  0
    0.7787    1.1603   -5.9358 C   0  0  0  0  0  0  0  0  0  0  0  0
   -0.6567    0.6262   -6.0079 C   0  0  0  0  0  0  0  0  0  0  0  0
   -0.7687   -0.7852   -5.3969 C   0  0  0  0  0  0  0  0  0  0  0  0
    0.2060   -1.0295   -4.2248 C   0  0  0  0  0  0  0  0  0  0  0  0
    2.4232    0.9634    8.2760 H   0  0  0  0  0  0  0  0  0  0  0  0
    1.9117   -0.7433    7.9256 H   0  0  0  0  0  0  0  0  0  0  0  0
    0.6572    0.5632    8.1651 H   0  0  0  0  0  0  0  0  0  0  0  0
   -2.0587   -3.3291    4.7455 H   0  0  0  0  0  0  0  0  0  0  0  0
   -2.9336   -1.9398    5.5190 H   0  0  0  0  0  0  0  0  0  0  0  0
   -1.6801   -2.8608    6.4491 H   0  0  0  0  0  0  0  0  0  0  0  0
   -1.5156   -1.6554    2.9025 H   0  0  0  0  0  0  0  0  0  0  0  0
   -1.7215   -0.1332    1.0802 H   0  0  0  0  0  0  0  0  0  0  0  0
   -0.5736   -1.4745    0.6955 H   0  0  0  0  0  0  0  0  0  0  0  0
   -1.0220   -0.3598   -1.3471 H   0  0  0  0  0  0  0  0  0  0  0  0
   -0.8109    1.2873   -0.6372 H   0  0  0  0  0  0  0  0  0  0  0  0
    2.5881   -0.3675    0.3058 H   0  0  0  0  0  0  0  0  0  0  0  0
    2.6856    1.3322   -0.2952 H   0  0  0  0  0  0  0  0  0  0  0  0
    0.9016    2.0629    1.1950 H   0  0  0  0  0  0  0  0  0  0  0  0
    2.1308    1.1501    2.1391 H   0  0  0  0  0  0  0  0  0  0  0  0
   -0.3550    0.7789   -3.1851 H   0  0  0  0  0  0  0  0  0  0  0  0
    1.1359    2.3021   -4.1052 H   0  0  0  0  0  0  0  0  0  0  0  0
    2.3923    1.0847   -4.4904 H   0  0  0  0  0  0  0  0  0  0  0  0
    0.8235    2.1635   -6.4139 H   0  0  0  0  0  0  0  0  0  0  0  0
    1.4422    0.4785   -6.5158 H   0  0  0  0  0  0  0  0  0  0  0  0
   -1.3331    1.3272   -5.4688 H   0  0  0  0  0  0  0  0  0  0  0  0
   -0.9873    0.5940   -7.0689 H   0  0  0  0  0  0  0  0  0  0  0  0
   -1.8137   -0.9388   -5.0508 H   0  0  0  0  0  0  0  0  0  0  0  0
   -0.5697   -1.5372   -6.1910 H   0  0  0  0  0  0  0  0  0  0  0  0
   -0.2636   -1.7353   -3.5038 H   0  0  0  0  0  0  0  0  0  0  0  0
    1.1298   -1.5133   -4.6137 H   0  0  0  0  0  0  0  0  0  0  0  0
  1  2  1  0
  2  3  1  0
  3  4  2  0
  4  5  1  0
  5  6  1  0
  5  7  2  0
  7  8  1  0
  8  9  2  0
  8 10  1  0
 10 11  1  0
 11 12  1  0
 12 13  1  0
 13 14  1  0
 14 15  1  0
 13 16  1  0
 16 17  2  0
 16 18  1  0
 18 19  1  0
 19 20  1  0
 20 21  1  0
 21 22  1  0
 22 23  1  0
  3  9  1  0
 15 10  1  0
 23 18  1  0
  1 24  1  0
  1 25  1  0
  1 26  1  0
  6 27  1  0
  6 28  1  0
  6 29  1  0
  7 30  1  0
 11 31  1  0
 11 32  1  0
 12 33  1  0
 12 34  1  0
 14 35  1  0
 14 36  1  0
 15 37  1  0
 15 38  1  0
 18 39  1  0
 19 40  1  0
 19 41  1  0
 20 42  1  0
 20 43  1  0
 21 44  1  0
 21 45  1  0
 22 46  1  0
 22 47  1  0
 23 48  1  0
 23 49  1  0
M  END
$$$$
