
     RDKit          3D

 30 32  0  0  0  0  0  0  0  0999 V2000
    3.0589    4.2962    0.8571 N   0  0  0  0  0  0  0  0  0  0  0  0
    2.2465    3.5719    1.2501 C   0  0  0  0  0  0  0  0  0  0  0  0
    1.2364    2.6709    1.7389 C   0  0  0  0  0  0  0  0  0  0  0  0
    0.2310    3.0733    2.6279 C   0  0  0  0  0  0  0  0  0  0  0  0
   -0.6341    2.0470    2.9871 C   0  0  0  0  0  0  0  0  0  0  0  0
   -0.1465    0.6417    2.2007 S   0  0  0  0  0  0  0  0  0  0  0  0
    1.1596    1.3254    1.3941 C   0  0  0  0  0  0  0  0  0  0  0  0
    2.2417    0.4468    0.3212 S   0  0  0  0  0  0  0  0  0  0  0  0
    3.4597    0.0329    1.0975 O   0  0  0  0  0  0  0  0  0  0  0  0
    2.6635    1.3130   -0.8324 O   0  0  0  0  0  0  0  0  0  0  0  0
    1.4493   -0.9710   -0.2907 N   0  0  0  0  0  0  0  0  0  0  0  0
    0.1992   -0.9461   -1.0060 C   0  0  0  0  0  0  0  0  0  0  0  0
   -0.3873    0.2636   -1.4474 C   0  0  0  0  0  0  0  0  0  0  0  0
   -1.6107    0.2589   -2.1431 C   0  0  0  0  0  0  0  0  0  0  0  0
   -2.2704   -0.9471   -2.4141 C   0  0  0  0  0  0  0  0  0  0  0  0
   -1.6878   -2.1355   -1.9807 C   0  0  0  0  0  0  0  0  0  0  0  0
   -2.2148   -3.5239   -2.1483 C   0  0  0  0  0  0  0  0  0  0  0  0
   -1.1338   -4.2915   -1.4527 C   0  0  0  0  0  0  0  0  0  0  0  0
   -1.1293   -5.5434   -1.3213 O   0  0  0  0  0  0  0  0  0  0  0  0
   -0.0990   -3.4580   -0.9439 N   0  0  0  0  0  0  0  0  0  0  0  0
   -0.4865   -2.1385   -1.2963 C   0  0  0  0  0  0  0  0  0  0  0  0
    0.1349    4.0834    3.0049 H   0  0  0  0  0  0  0  0  0  0  0  0
   -1.4749    2.1378    3.6611 H   0  0  0  0  0  0  0  0  0  0  0  0
    1.9112   -1.8826   -0.0842 H   0  0  0  0  0  0  0  0  0  0  0  0
    0.0881    1.2157   -1.2639 H   0  0  0  0  0  0  0  0  0  0  0  0
   -2.0457    1.1939   -2.4719 H   0  0  0  0  0  0  0  0  0  0  0  0
   -3.2123   -0.9540   -2.9472 H   0  0  0  0  0  0  0  0  0  0  0  0
   -2.2739   -3.8018   -3.2217 H   0  0  0  0  0  0  0  0  0  0  0  0
   -3.1884   -3.6469   -1.6289 H   0  0  0  0  0  0  0  0  0  0  0  0
    0.7400   -3.7695   -0.4078 H   0  0  0  0  0  0  0  0  0  0  0  0
  1  2  3  0
  2  3  1  0
  3  4  1  0
  4  5  2  0
  5  6  1  0
  6  7  1  0
  7  8  1  0
  8  9  2  0
  8 10  2  0
  8 11  1  0
 11 12  1  0
 12 13  2  0
 13 14  1  0
 14 15  2  0
 15 16  1  0
 16 17  1  0
 17 18  1  0
 18 19  2  0
 18 20  1  0
 20 21  1  0
  3  7  2  0
 12 21  1  0
 21 16  2  0
  4 22  1  0
  5 23  1  0
 11 24  1  0
 13 25  1  0
 14 26  1  0
 15 27  1  0
 17 28  1  0
 17 29  1  0
 20 30  1  0
M  END
$$$$
