
     RDKit          3D

 43 45  0  0  0  0  0  0  0  0999 V2000
    0.8024    0.1301   -2.3367 O   0  0  0  0  0  0  0  0  0  0  0  0
   -0.0916    0.2269   -1.4516 C   0  0  0  0  0  0  0  0  0  0  0  0
   -0.7855    1.4736   -1.2750 N   0  0  0  0  0  0  0  0  0  0  0  0
   -0.2560    2.7465   -1.6851 C   0  0  0  0  0  0  0  0  0  0  0  0
   -1.1379    3.7661   -2.0706 C   0  0  0  0  0  0  0  0  0  0  0  0
   -0.6483    5.0153   -2.4559 C   0  0  0  0  0  0  0  0  0  0  0  0
    0.7256    5.2634   -2.4448 C   0  0  0  0  0  0  0  0  0  0  0  0
    1.6244    4.2709   -2.0381 C   0  0  0  0  0  0  0  0  0  0  0  0
    1.1268    3.0087   -1.6550 C   0  0  0  0  0  0  0  0  0  0  0  0
    2.9944    4.5828   -2.0350 O   0  0  0  0  0  0  0  0  0  0  0  0
    4.0403    3.7353   -1.5581 C   0  0  0  0  0  0  0  0  0  0  0  0
    4.0776    3.7229   -0.0326 C   0  0  0  0  0  0  0  0  0  0  0  0
    4.2810    5.0052    0.4440 F   0  0  0  0  0  0  0  0  0  0  0  0
   -0.4466   -0.9628   -0.6400 C   0  0  0  0  0  0  0  0  0  0  0  0
   -1.1395   -0.8283    0.5765 C   0  0  0  0  0  0  0  0  0  0  0  0
   -1.4619   -1.9550    1.3386 C   0  0  0  0  0  0  0  0  0  0  0  0
   -1.0807   -3.2373    0.9094 C   0  0  0  0  0  0  0  0  0  0  0  0
   -0.4045   -3.3748   -0.3099 C   0  0  0  0  0  0  0  0  0  0  0  0
   -0.0794   -2.2494   -1.0724 C   0  0  0  0  0  0  0  0  0  0  0  0
   -1.4228   -4.4128    1.6631 N   0  0  0  0  0  0  0  0  0  0  0  0
   -1.4370   -4.4767    3.0964 C   0  0  0  0  0  0  0  0  0  0  0  0
   -0.8627   -3.4947    3.8452 N   0  0  0  0  0  0  0  0  0  0  0  0
   -0.8475   -3.5648    5.2015 C   0  0  0  0  0  0  0  0  0  0  0  0
   -1.4177   -4.6608    5.8469 C   0  0  0  0  0  0  0  0  0  0  0  0
   -1.9897   -5.6653    5.0680 C   0  0  0  0  0  0  0  0  0  0  0  0
   -1.9852   -5.5581    3.7138 N   0  0  0  0  0  0  0  0  0  0  0  0
   -1.7733    1.4418   -0.9355 H   0  0  0  0  0  0  0  0  0  0  0  0
   -2.2059    3.5878   -2.0826 H   0  0  0  0  0  0  0  0  0  0  0  0
   -1.3351    5.7935   -2.7626 H   0  0  0  0  0  0  0  0  0  0  0  0
    1.0946    6.2360   -2.7449 H   0  0  0  0  0  0  0  0  0  0  0  0
    1.8011    2.2377   -1.3147 H   0  0  0  0  0  0  0  0  0  0  0  0
    5.0081    4.1336   -1.9291 H   0  0  0  0  0  0  0  0  0  0  0  0
    3.9321    2.7066   -1.9624 H   0  0  0  0  0  0  0  0  0  0  0  0
    3.1269    3.3288    0.3810 H   0  0  0  0  0  0  0  0  0  0  0  0
    4.9093    3.0732    0.3124 H   0  0  0  0  0  0  0  0  0  0  0  0
   -1.4255    0.1461    0.9499 H   0  0  0  0  0  0  0  0  0  0  0  0
   -2.0265   -1.8229    2.2520 H   0  0  0  0  0  0  0  0  0  0  0  0
   -0.1188   -4.3571   -0.6649 H   0  0  0  0  0  0  0  0  0  0  0  0
    0.4504   -2.3881   -2.0067 H   0  0  0  0  0  0  0  0  0  0  0  0
   -1.5938   -5.3010    1.1392 H   0  0  0  0  0  0  0  0  0  0  0  0
   -0.3903   -2.7713    5.7773 H   0  0  0  0  0  0  0  0  0  0  0  0
   -1.4126   -4.7321    6.9268 H   0  0  0  0  0  0  0  0  0  0  0  0
   -2.4349   -6.5317    5.5388 H   0  0  0  0  0  0  0  0  0  0  0  0
  1  2  2  0
  2  3  1  0
  3  4  1  0
  4  5  2  0
  5  6  1  0
  6  7  2  0
  7  8  1  0
  8  9  2  0
  8 10  1  0
 10 11  1  0
 11 12  1  0
 12 13  1  0
  2 14  1  0
 14 15  2  0
 15 16  1  0
 16 17  2  0
 17 18  1  0
 18 19  2  0
 17 20  1  0
 20 21  1  0
 21 22  2  0
 22 23  1  0
 23 24  2  0
 24 25  1  0
 25 26  2  0
  4  9  1  0
 14 19  1  0
 21 26  1  0
  3 27  1  0
  5 28  1  0
  6 29  1  0
  7 30  1  0
  9 31  1  0
 11 32  1  0
 11 33  1  0
 12 34  1  0
 12 35  1  0
 15 36  1  0
 16 37  1  0
 18 38  1  0
 19 39  1  0
 20 40  1  0
 23 41  1  0
 24 42  1  0
 25 43  1  0
M  END
$$$$
