
     RDKit          3D

 51 53  0  0  0  0  0  0  0  0999 V2000
   -2.0672    4.1287    4.9166 C   0  0  0  0  0  0  0  0  0  0  0  0
   -1.7469    2.7096    4.5961 C   0  0  0  0  0  0  0  0  0  0  0  0
   -0.6684    2.2041    5.0093 O   0  0  0  0  0  0  0  0  0  0  0  0
   -2.6264    1.9686    3.7981 O   0  0  0  0  0  0  0  0  0  0  0  0
   -2.3701    0.6274    3.3844 C   0  0  0  0  0  0  0  0  0  0  0  0
   -1.2753    0.5921    2.3521 C   0  0  0  0  0  0  0  0  0  0  0  0
   -0.1279    0.2148    2.7188 O   0  0  0  0  0  0  0  0  0  0  0  0
   -1.4928    0.9906    0.9777 N   0  0  0  0  0  0  0  0  0  0  0  0
   -2.8102    1.4859    0.5234 C   0  0  0  0  0  0  0  0  0  0  0  0
   -2.6541    2.5665   -0.5530 C   0  0  0  0  0  0  0  0  0  0  0  0
   -1.7124    2.1197   -1.5679 N   0  0  0  0  0  0  0  0  0  0  0  0
   -1.6440    2.5902   -2.8037 N   0  0  0  0  0  0  0  0  0  0  0  0
   -0.5774    2.0110   -3.3966 C   0  0  0  0  0  0  0  0  0  0  0  0
    0.0443    1.1677   -2.4924 C   0  0  0  0  0  0  0  0  0  0  0  0
   -0.6991    1.2742   -1.3369 C   0  0  0  0  0  0  0  0  0  0  0  0
   -0.4680    0.6080   -0.0149 C   0  0  0  0  0  0  0  0  0  0  0  0
    1.5081    0.2337   -2.7486 S   0  0  0  0  0  0  0  0  0  0  0  0
    2.8811    1.0931   -2.0088 C   0  0  0  0  0  0  0  0  0  0  0  0
    1.7460    0.0751   -4.2245 O   0  0  0  0  0  0  0  0  0  0  0  0
    1.3307   -1.1846   -2.0938 N   0  0  0  0  0  0  0  0  0  0  0  0
    2.3431   -2.1963   -2.1137 C   0  0  0  0  0  0  0  0  0  0  0  0
    3.3943   -2.0447   -2.7927 O   0  0  0  0  0  0  0  0  0  0  0  0
    2.1397   -3.4694   -1.3482 C   0  0  0  0  0  0  0  0  0  0  0  0
    1.5391   -3.2948    0.0512 C   0  0  0  0  0  0  0  0  0  0  0  0
    3.0084   -3.6757   -0.1021 C   0  0  0  0  0  0  0  0  0  0  0  0
    3.3519   -5.1274    0.2431 C   0  0  0  0  0  0  0  0  0  0  0  0
    4.0178   -2.5912    0.3052 C   0  0  0  0  0  0  0  0  0  0  0  0
   -1.6417    4.7885    4.1327 H   0  0  0  0  0  0  0  0  0  0  0  0
   -3.1673    4.2691    4.9511 H   0  0  0  0  0  0  0  0  0  0  0  0
   -1.6383    4.4057    5.9029 H   0  0  0  0  0  0  0  0  0  0  0  0
   -2.0949    0.0074    4.2656 H   0  0  0  0  0  0  0  0  0  0  0  0
   -3.2980    0.1907    2.9590 H   0  0  0  0  0  0  0  0  0  0  0  0
   -3.3935    0.6344    0.1114 H   0  0  0  0  0  0  0  0  0  0  0  0
   -3.3896    1.9330    1.3556 H   0  0  0  0  0  0  0  0  0  0  0  0
   -3.6410    2.7763   -1.0188 H   0  0  0  0  0  0  0  0  0  0  0  0
   -2.2709    3.5008   -0.0889 H   0  0  0  0  0  0  0  0  0  0  0  0
   -0.2625    2.2080   -4.4120 H   0  0  0  0  0  0  0  0  0  0  0  0
   -0.4859   -0.4937   -0.1501 H   0  0  0  0  0  0  0  0  0  0  0  0
    0.5378    0.9105    0.3465 H   0  0  0  0  0  0  0  0  0  0  0  0
    3.8320    0.5949   -2.2866 H   0  0  0  0  0  0  0  0  0  0  0  0
    2.7732    1.0873   -0.9051 H   0  0  0  0  0  0  0  0  0  0  0  0
    2.8993    2.1414   -2.3702 H   0  0  0  0  0  0  0  0  0  0  0  0
    1.7988   -4.3764   -1.8909 H   0  0  0  0  0  0  0  0  0  0  0  0
    1.3491   -2.2479    0.3739 H   0  0  0  0  0  0  0  0  0  0  0  0
    0.8591   -4.1197    0.3523 H   0  0  0  0  0  0  0  0  0  0  0  0
    4.3046   -5.4088   -0.2523 H   0  0  0  0  0  0  0  0  0  0  0  0
    2.5600   -5.8338   -0.0882 H   0  0  0  0  0  0  0  0  0  0  0  0
    3.4756   -5.2283    1.3418 H   0  0  0  0  0  0  0  0  0  0  0  0
    3.6181   -1.5638    0.1666 H   0  0  0  0  0  0  0  0  0  0  0  0
    4.2818   -2.7154    1.3764 H   0  0  0  0  0  0  0  0  0  0  0  0
    4.9397   -2.6996   -0.3030 H   0  0  0  0  0  0  0  0  0  0  0  0
  1  2  1  0
  2  3  2  0
  2  4  1  0
  4  5  1  0
  5  6  1  0
  6  7  2  0
  6  8  1  0
  8  9  1  0
  9 10  1  0
 10 11  1  0
 11 12  1  0
 12 13  2  0
 13 14  1  0
 14 15  2  0
 15 16  1  0
 14 17  1  0
 17 18  1  0
 17 19  2  0
 17 20  2  0
 20 21  1  0
 21 22  2  0
 21 23  1  0
 23 24  1  0
 24 25  1  0
 25 26  1  0
 25 27  1  0
 16  8  1  0
 15 11  1  0
 25 23  1  0
  1 28  1  0
  1 29  1  0
  1 30  1  0
  5 31  1  0
  5 32  1  0
  9 33  1  0
  9 34  1  0
 10 35  1  0
 10 36  1  0
 13 37  1  0
 16 38  1  0
 16 39  1  0
 18 40  1  0
 18 41  1  0
 18 42  1  0
 23 43  1  0
 24 44  1  0
 24 45  1  0
 26 46  1  0
 26 47  1  0
 26 48  1  0
 27 49  1  0
 27 50  1  0
 27 51  1  0
M  END
$$$$
