
     RDKit          3D

 48 51  0  0  0  0  0  0  0  0999 V2000
    0.1222    1.3955    4.5037 C   0  0  0  0  0  0  0  0  0  0  0  0
   -1.0230    1.9914    3.6690 C   0  0  0  0  0  0  0  0  0  0  0  0
   -0.7241    3.4755    3.3755 C   0  0  0  0  0  0  0  0  0  0  0  0
   -2.2051    1.8899    4.4271 O   0  0  0  0  0  0  0  0  0  0  0  0
   -1.1845    1.1978    2.3523 C   0  0  0  0  0  0  0  0  0  0  0  0
    0.0019    1.2614    1.5963 O   0  0  0  0  0  0  0  0  0  0  0  0
   -0.2102    0.5320    0.4698 N   0  0  0  0  0  0  0  0  0  0  0  0
    0.2820   -0.8082    0.3667 C   0  0  0  0  0  0  0  0  0  0  0  0
    0.6296   -1.4291    1.4069 O   0  0  0  0  0  0  0  0  0  0  0  0
    0.3488   -1.4833   -0.9416 C   0  0  0  0  0  0  0  0  0  0  0  0
   -0.1837   -2.7822   -1.0908 C   0  0  0  0  0  0  0  0  0  0  0  0
   -0.2411   -3.3967   -2.3772 C   0  0  0  0  0  0  0  0  0  0  0  0
    0.2276   -2.7158   -3.4664 N   0  0  0  0  0  0  0  0  0  0  0  0
    0.7598   -1.4816   -3.3087 C   0  0  0  0  0  0  0  0  0  0  0  0
    1.2536   -0.7178   -4.2478 O   0  0  0  0  0  0  0  0  0  0  0  0
    1.7069    0.3896   -3.7256 N   0  0  0  0  0  0  0  0  0  0  0  0
    1.4938    0.3312   -2.3879 C   0  0  0  0  0  0  0  0  0  0  0  0
    1.9923    1.3554   -1.4536 C   0  0  0  0  0  0  0  0  0  0  0  0
    1.7231    2.7115   -1.6942 C   0  0  0  0  0  0  0  0  0  0  0  0
    2.1827    3.6883   -0.8050 C   0  0  0  0  0  0  0  0  0  0  0  0
    2.9283    3.3187    0.3180 C   0  0  0  0  0  0  0  0  0  0  0  0
    3.2259    1.9726    0.5473 C   0  0  0  0  0  0  0  0  0  0  0  0
    2.7683    0.9933   -0.3396 C   0  0  0  0  0  0  0  0  0  0  0  0
    0.8572   -0.8697   -2.0955 C   0  0  0  0  0  0  0  0  0  0  0  0
   -0.8148   -4.7772   -2.6237 C   0  0  0  0  0  0  0  0  0  0  0  0
   -2.0106   -5.1969   -1.7802 C   0  0  0  0  0  0  0  0  0  0  0  0
   -0.6419   -5.8171   -1.5253 C   0  0  0  0  0  0  0  0  0  0  0  0
    1.0925    1.4760    3.9676 H   0  0  0  0  0  0  0  0  0  0  0  0
    0.2117    1.9326    5.4724 H   0  0  0  0  0  0  0  0  0  0  0  0
   -0.0752    0.3235    4.7200 H   0  0  0  0  0  0  0  0  0  0  0  0
    0.2422    3.5877    2.8376 H   0  0  0  0  0  0  0  0  0  0  0  0
   -0.6674    4.0506    4.3245 H   0  0  0  0  0  0  0  0  0  0  0  0
   -1.5275    3.9181    2.7485 H   0  0  0  0  0  0  0  0  0  0  0  0
   -2.9454    2.2870    3.8967 H   0  0  0  0  0  0  0  0  0  0  0  0
   -1.4326    0.1392    2.5976 H   0  0  0  0  0  0  0  0  0  0  0  0
   -2.0303    1.6277    1.7671 H   0  0  0  0  0  0  0  0  0  0  0  0
   -0.6264    0.9995   -0.3672 H   0  0  0  0  0  0  0  0  0  0  0  0
   -0.5779   -3.2823   -0.2170 H   0  0  0  0  0  0  0  0  0  0  0  0
    1.1409    3.0101   -2.5574 H   0  0  0  0  0  0  0  0  0  0  0  0
    1.9594    4.7318   -0.9857 H   0  0  0  0  0  0  0  0  0  0  0  0
    3.2809    4.0756    1.0066 H   0  0  0  0  0  0  0  0  0  0  0  0
    3.8116    1.6880    1.4117 H   0  0  0  0  0  0  0  0  0  0  0  0
    3.0156   -0.0450   -0.1565 H   0  0  0  0  0  0  0  0  0  0  0  0
   -0.8076   -5.1849   -3.6576 H   0  0  0  0  0  0  0  0  0  0  0  0
   -2.7191   -5.8779   -2.2973 H   0  0  0  0  0  0  0  0  0  0  0  0
   -2.3507   -4.4901   -0.9960 H   0  0  0  0  0  0  0  0  0  0  0  0
   -0.5505   -6.8608   -1.8936 H   0  0  0  0  0  0  0  0  0  0  0  0
   -0.1526   -5.4875   -0.5863 H   0  0  0  0  0  0  0  0  0  0  0  0
  1  2  1  0
  2  3  1  0
  2  4  1  0
  2  5  1  0
  5  6  1  0
  6  7  1  0
  7  8  1  0
  8  9  2  0
  8 10  1  0
 10 11  2  0
 11 12  1  0
 12 13  2  0
 13 14  1  0
 14 15  1  0
 15 16  1  0
 16 17  2  0
 17 18  1  0
 18 19  2  0
 19 20  1  0
 20 21  2  0
 21 22  1  0
 22 23  2  0
 17 24  1  0
 12 25  1  0
 25 26  1  0
 26 27  1  0
 10 24  1  0
 24 14  2  0
 18 23  1  0
 27 25  1  0
  1 28  1  0
  1 29  1  0
  1 30  1  0
  3 31  1  0
  3 32  1  0
  3 33  1  0
  4 34  1  0
  5 35  1  0
  5 36  1  0
  7 37  1  0
 11 38  1  0
 19 39  1  0
 20 40  1  0
 21 41  1  0
 22 42  1  0
 23 43  1  0
 25 44  1  0
 26 45  1  0
 26 46  1  0
 27 47  1  0
 27 48  1  0
M  END
$$$$
