
     RDKit          3D

 44 47  0  0  0  0  0  0  0  0999 V2000
   -2.5020   -0.7894   -3.7754 O   0  0  0  0  0  0  0  0  0  0  0  0
   -2.1712   -0.3765   -2.6301 C   0  0  0  0  0  0  0  0  0  0  0  0
   -2.3428   -1.2329   -1.4892 N   0  0  0  0  0  0  0  0  0  0  0  0
   -2.5714   -2.6778   -1.6246 C   0  0  0  0  0  0  0  0  0  0  0  0
   -1.2970   -3.3822   -2.1210 C   0  0  0  0  0  0  0  0  0  0  0  0
   -0.2497   -3.4471   -1.0021 C   0  0  0  0  0  0  0  0  0  0  0  0
   -0.7632   -4.1305    0.1259 O   0  0  0  0  0  0  0  0  0  0  0  0
   -1.8306   -3.3935    0.6924 C   0  0  0  0  0  0  0  0  0  0  0  0
   -3.0132   -3.2938   -0.2843 C   0  0  0  0  0  0  0  0  0  0  0  0
   -1.6208    0.9911   -2.4793 C   0  0  0  0  0  0  0  0  0  0  0  0
   -1.8836    1.9730   -3.4467 C   0  0  0  0  0  0  0  0  0  0  0  0
   -1.3732    3.2242   -3.3108 N   0  0  0  0  0  0  0  0  0  0  0  0
   -0.5941    3.5720   -2.2541 C   0  0  0  0  0  0  0  0  0  0  0  0
   -0.2834    2.6291   -1.2615 C   0  0  0  0  0  0  0  0  0  0  0  0
   -0.8051    1.3308   -1.3874 C   0  0  0  0  0  0  0  0  0  0  0  0
    0.5818    2.9934   -0.1108 C   0  0  0  0  0  0  0  0  0  0  0  0
    0.4464    4.2572    0.5191 C   0  0  0  0  0  0  0  0  0  0  0  0
    1.2613    4.6043    1.6089 C   0  0  0  0  0  0  0  0  0  0  0  0
    2.2012    3.6784    2.0515 C   0  0  0  0  0  0  0  0  0  0  0  0
    3.0846    3.8358    3.0964 O   0  0  0  0  0  0  0  0  0  0  0  0
    3.8891    2.6651    3.2403 C   0  0  0  0  0  0  0  0  0  0  0  0
    3.4190    1.6893    2.1333 C   0  0  0  0  0  0  0  0  0  0  0  0
    2.3435    2.4601    1.4569 C   0  0  0  0  0  0  0  0  0  0  0  0
    1.5510    2.0838    0.3727 C   0  0  0  0  0  0  0  0  0  0  0  0
   -2.3770   -0.7957   -0.5410 H   0  0  0  0  0  0  0  0  0  0  0  0
   -3.3876   -2.8427   -2.3623 H   0  0  0  0  0  0  0  0  0  0  0  0
   -0.8728   -2.8544   -3.0017 H   0  0  0  0  0  0  0  0  0  0  0  0
   -1.5509   -4.4175   -2.4379 H   0  0  0  0  0  0  0  0  0  0  0  0
    0.6331   -4.0059   -1.3777 H   0  0  0  0  0  0  0  0  0  0  0  0
    0.1044   -2.4261   -0.7303 H   0  0  0  0  0  0  0  0  0  0  0  0
   -1.4913   -2.3842    1.0179 H   0  0  0  0  0  0  0  0  0  0  0  0
   -2.1743   -3.9235    1.6055 H   0  0  0  0  0  0  0  0  0  0  0  0
   -3.8275   -2.6870    0.1679 H   0  0  0  0  0  0  0  0  0  0  0  0
   -3.4135   -4.3153   -0.4671 H   0  0  0  0  0  0  0  0  0  0  0  0
   -2.5025    1.7499   -4.3063 H   0  0  0  0  0  0  0  0  0  0  0  0
   -0.1995    4.5783   -2.2039 H   0  0  0  0  0  0  0  0  0  0  0  0
   -0.5689    0.5881   -0.6367 H   0  0  0  0  0  0  0  0  0  0  0  0
   -0.2992    4.9650    0.1799 H   0  0  0  0  0  0  0  0  0  0  0  0
    1.1590    5.5656    2.0949 H   0  0  0  0  0  0  0  0  0  0  0  0
    3.7320    2.2239    4.2476 H   0  0  0  0  0  0  0  0  0  0  0  0
    4.9602    2.9274    3.1060 H   0  0  0  0  0  0  0  0  0  0  0  0
    4.2413    1.4645    1.4206 H   0  0  0  0  0  0  0  0  0  0  0  0
    3.0089    0.7536    2.5703 H   0  0  0  0  0  0  0  0  0  0  0  0
    1.6991    1.1166   -0.0906 H   0  0  0  0  0  0  0  0  0  0  0  0
  1  2  2  0
  2  3  1  0
  3  4  1  0
  4  5  1  0
  5  6  1  0
  6  7  1  0
  7  8  1  0
  8  9  1  0
  2 10  1  0
 10 11  2  0
 11 12  1  0
 12 13  2  0
 13 14  1  0
 14 15  2  0
 14 16  1  0
 16 17  2  0
 17 18  1  0
 18 19  2  0
 19 20  1  0
 20 21  1  0
 21 22  1  0
 22 23  1  0
 23 24  2  0
  9  4  1  0
 10 15  1  0
 24 16  1  0
 23 19  1  0
  3 25  1  0
  4 26  1  0
  5 27  1  0
  5 28  1  0
  6 29  1  0
  6 30  1  0
  8 31  1  0
  8 32  1  0
  9 33  1  0
  9 34  1  0
 11 35  1  0
 13 36  1  0
 15 37  1  0
 17 38  1  0
 18 39  1  0
 21 40  1  0
 21 41  1  0
 22 42  1  0
 22 43  1  0
 24 44  1  0
M  END
$$$$
