
     RDKit          3D

 50 53  0  0  0  0  0  0  0  0999 V2000
    1.4746    1.2175    0.3711 O   0  0  0  0  0  0  0  0  0  0  0  0
    0.3990    0.5780    0.5273 C   0  0  0  0  0  0  0  0  0  0  0  0
   -0.8560    1.2189    0.2458 N   0  0  0  0  0  0  0  0  0  0  0  0
   -0.9401    2.6059   -0.2088 C   0  0  0  0  0  0  0  0  0  0  0  0
   -0.6426    2.7039   -1.7206 C   0  0  0  0  0  0  0  0  0  0  0  0
   -1.6154    1.9407   -2.5206 N   0  0  0  0  0  0  0  0  0  0  0  0
   -1.9216    2.7667   -3.6850 C   0  0  0  0  0  0  0  0  0  0  0  0
   -1.7590    4.2097   -3.2600 C   0  0  0  0  0  0  0  0  0  0  0  0
   -0.6615    4.1708   -2.2089 C   0  0  0  0  0  0  0  0  0  0  0  0
    0.6962    4.5594   -2.8337 C   0  0  0  0  0  0  0  0  0  0  0  0
    1.0994    6.0193   -2.6876 C   0  0  0  0  0  0  0  0  0  0  0  0
    1.7743    4.9551   -1.8348 C   0  0  0  0  0  0  0  0  0  0  0  0
    0.4399   -0.8176    1.0285 C   0  0  0  0  0  0  0  0  0  0  0  0
   -0.5495   -1.2582    1.9227 C   0  0  0  0  0  0  0  0  0  0  0  0
   -0.5291   -2.5591    2.4292 C   0  0  0  0  0  0  0  0  0  0  0  0
    0.4883   -3.4561    2.0644 C   0  0  0  0  0  0  0  0  0  0  0  0
    1.4786   -3.0179    1.1658 C   0  0  0  0  0  0  0  0  0  0  0  0
    1.4615   -1.7161    0.6498 C   0  0  0  0  0  0  0  0  0  0  0  0
    2.7084   -1.2824   -0.5158 Cl  0  0  0  0  0  0  0  0  0  0  0  0
    0.5113   -4.8031    2.5908 N   0  0  0  0  0  0  0  0  0  0  0  0
    1.4362   -5.8463    2.1493 C   0  0  0  0  0  0  0  0  0  0  0  0
    1.0424   -7.1803    2.8219 C   0  0  0  0  0  0  0  0  0  0  0  0
    0.3573   -6.9017    4.1636 C   0  0  0  0  0  0  0  0  0  0  0  0
   -0.3920   -5.3211    3.9571 S   0  0  0  0  0  0  0  0  0  0  0  0
   -0.1538   -4.4340    5.1496 O   0  0  0  0  0  0  0  0  0  0  0  0
   -1.8565   -5.4385    3.6377 O   0  0  0  0  0  0  0  0  0  0  0  0
   -1.7477    0.6843    0.3508 H   0  0  0  0  0  0  0  0  0  0  0  0
   -0.2210    3.2318    0.3655 H   0  0  0  0  0  0  0  0  0  0  0  0
   -1.9596    2.9993   -0.0008 H   0  0  0  0  0  0  0  0  0  0  0  0
    0.3604    2.2542   -1.8953 H   0  0  0  0  0  0  0  0  0  0  0  0
   -2.5086    1.8197   -1.9862 H   0  0  0  0  0  0  0  0  0  0  0  0
   -2.9527    2.5732   -4.0555 H   0  0  0  0  0  0  0  0  0  0  0  0
   -1.2011    2.5293   -4.4974 H   0  0  0  0  0  0  0  0  0  0  0  0
   -1.5211    4.8685   -4.1232 H   0  0  0  0  0  0  0  0  0  0  0  0
   -2.7062    4.5593   -2.7934 H   0  0  0  0  0  0  0  0  0  0  0  0
   -0.9294    4.8720   -1.3844 H   0  0  0  0  0  0  0  0  0  0  0  0
    1.0615    4.0512   -3.7537 H   0  0  0  0  0  0  0  0  0  0  0  0
    0.3924    6.6713   -2.1312 H   0  0  0  0  0  0  0  0  0  0  0  0
    1.7369    6.4043   -3.5119 H   0  0  0  0  0  0  0  0  0  0  0  0
    2.8101    4.7132   -2.1556 H   0  0  0  0  0  0  0  0  0  0  0  0
    1.4702    4.9781   -0.7671 H   0  0  0  0  0  0  0  0  0  0  0  0
   -1.3354   -0.5893    2.2526 H   0  0  0  0  0  0  0  0  0  0  0  0
   -1.3177   -2.8563    3.1072 H   0  0  0  0  0  0  0  0  0  0  0  0
    2.2737   -3.6817    0.8614 H   0  0  0  0  0  0  0  0  0  0  0  0
    1.3914   -5.9602    1.0431 H   0  0  0  0  0  0  0  0  0  0  0  0
    2.4702   -5.5689    2.4517 H   0  0  0  0  0  0  0  0  0  0  0  0
    1.9337   -7.8311    2.9612 H   0  0  0  0  0  0  0  0  0  0  0  0
    0.3216   -7.7126    2.1631 H   0  0  0  0  0  0  0  0  0  0  0  0
    1.1163   -6.8468    4.9748 H   0  0  0  0  0  0  0  0  0  0  0  0
   -0.4021   -7.6774    4.4030 H   0  0  0  0  0  0  0  0  0  0  0  0
  1  2  2  0
  2  3  1  0
  3  4  1  0
  4  5  1  0
  5  6  1  0
  6  7  1  0
  7  8  1  0
  8  9  1  0
  9 10  1  0
 10 11  1  0
 11 12  1  0
  2 13  1  0
 13 14  2  0
 14 15  1  0
 15 16  2  0
 16 17  1  0
 17 18  2  0
 18 19  1  0
 16 20  1  0
 20 21  1  0
 21 22  1  0
 22 23  1  0
 23 24  1  0
 24 25  2  0
 24 26  2  0
  9  5  1  0
 12 10  1  0
 13 18  1  0
 24 20  1  0
  3 27  1  0
  4 28  1  0
  4 29  1  0
  5 30  1  0
  6 31  1  0
  7 32  1  0
  7 33  1  0
  8 34  1  0
  8 35  1  0
  9 36  1  0
 10 37  1  0
 11 38  1  0
 11 39  1  0
 12 40  1  0
 12 41  1  0
 14 42  1  0
 15 43  1  0
 17 44  1  0
 21 45  1  0
 21 46  1  0
 22 47  1  0
 22 48  1  0
 23 49  1  0
 23 50  1  0
M  END
$$$$
