
     RDKit          3D

 39 41  0  0  0  0  0  0  0  0999 V2000
    2.1225   -3.4104   -0.8426 C   0  0  0  0  0  0  0  0  0  0  0  0
    3.4051   -2.7837   -0.3592 C   0  0  0  0  0  0  0  0  0  0  0  0
    4.3179   -3.5839    0.3506 C   0  0  0  0  0  0  0  0  0  0  0  0
    5.5376   -3.0605    0.7820 C   0  0  0  0  0  0  0  0  0  0  0  0
    5.8616   -1.7316    0.5139 C   0  0  0  0  0  0  0  0  0  0  0  0
    4.9600   -0.9161   -0.1720 C   0  0  0  0  0  0  0  0  0  0  0  0
    3.7164   -1.4187   -0.5949 C   0  0  0  0  0  0  0  0  0  0  0  0
    2.7888   -0.5036   -1.2971 C   0  0  0  0  0  0  0  0  0  0  0  0
    3.2453    0.2847   -2.1693 O   0  0  0  0  0  0  0  0  0  0  0  0
    1.3986   -0.4607   -0.9416 N   0  0  0  0  0  0  0  0  0  0  0  0
    0.3683    0.0703   -1.7860 C   0  0  0  0  0  0  0  0  0  0  0  0
   -0.9034    0.2312   -1.3645 N   0  0  0  0  0  0  0  0  0  0  0  0
   -1.7201    0.6977   -2.3507 C   0  0  0  0  0  0  0  0  0  0  0  0
   -1.0835    0.9024   -3.5792 C   0  0  0  0  0  0  0  0  0  0  0  0
    0.5346    0.4787   -3.4100 S   0  0  0  0  0  0  0  0  0  0  0  0
   -3.1657    0.9594   -2.1175 C   0  0  0  0  0  0  0  0  0  0  0  0
   -3.8343    1.9318   -2.8874 C   0  0  0  0  0  0  0  0  0  0  0  0
   -5.1872    2.2008   -2.6788 C   0  0  0  0  0  0  0  0  0  0  0  0
   -5.8937    1.5086   -1.6991 C   0  0  0  0  0  0  0  0  0  0  0  0
   -5.2521    0.5412   -0.9248 C   0  0  0  0  0  0  0  0  0  0  0  0
   -3.8859    0.2518   -1.1236 C   0  0  0  0  0  0  0  0  0  0  0  0
   -3.2242   -0.7321   -0.3666 O   0  0  0  0  0  0  0  0  0  0  0  0
   -3.8219   -1.5545    0.6330 C   0  0  0  0  0  0  0  0  0  0  0  0
   -4.3034   -0.7764    1.6705 F   0  0  0  0  0  0  0  0  0  0  0  0
   -4.8450   -2.3086    0.0864 F   0  0  0  0  0  0  0  0  0  0  0  0
    1.3123   -3.2177   -0.1093 H   0  0  0  0  0  0  0  0  0  0  0  0
    2.2361   -4.5098   -0.9568 H   0  0  0  0  0  0  0  0  0  0  0  0
    1.8350   -3.0074   -1.8362 H   0  0  0  0  0  0  0  0  0  0  0  0
    4.0921   -4.6226    0.5579 H   0  0  0  0  0  0  0  0  0  0  0  0
    6.2351   -3.6889    1.3206 H   0  0  0  0  0  0  0  0  0  0  0  0
    6.8098   -1.3297    0.8456 H   0  0  0  0  0  0  0  0  0  0  0  0
    5.2254    0.1177   -0.3565 H   0  0  0  0  0  0  0  0  0  0  0  0
    1.1154   -0.8268   -0.0056 H   0  0  0  0  0  0  0  0  0  0  0  0
   -1.5444    1.2414   -4.4971 H   0  0  0  0  0  0  0  0  0  0  0  0
   -3.3080    2.5054   -3.6392 H   0  0  0  0  0  0  0  0  0  0  0  0
   -5.6872    2.9540   -3.2742 H   0  0  0  0  0  0  0  0  0  0  0  0
   -6.9422    1.7230   -1.5374 H   0  0  0  0  0  0  0  0  0  0  0  0
   -5.8322    0.0248   -0.1744 H   0  0  0  0  0  0  0  0  0  0  0  0
   -3.0508   -2.2430    1.0358 H   0  0  0  0  0  0  0  0  0  0  0  0
  1  2  1  0
  2  3  2  0
  3  4  1  0
  4  5  2  0
  5  6  1  0
  6  7  2  0
  7  8  1  0
  8  9  2  0
  8 10  1  0
 10 11  1  0
 11 12  2  0
 12 13  1  0
 13 14  2  0
 14 15  1  0
 13 16  1  0
 16 17  2  0
 17 18  1  0
 18 19  2  0
 19 20  1  0
 20 21  2  0
 21 22  1  0
 22 23  1  0
 23 24  1  0
 23 25  1  0
  2  7  1  0
 15 11  1  0
 16 21  1  0
  1 26  1  0
  1 27  1  0
  1 28  1  0
  3 29  1  0
  4 30  1  0
  5 31  1  0
  6 32  1  0
 10 33  1  0
 14 34  1  0
 17 35  1  0
 18 36  1  0
 19 37  1  0
 20 38  1  0
 23 39  1  0
M  END
$$$$
