
     RDKit          3D

 40 43  0  0  0  0  0  0  0  0999 V2000
   -2.7615    1.2636    0.6046 O   0  0  0  0  0  0  0  0  0  0  0  0
   -1.6546    0.8769    0.1380 C   0  0  0  0  0  0  0  0  0  0  0  0
   -1.3119   -0.5162    0.1894 N   0  0  0  0  0  0  0  0  0  0  0  0
   -1.9654   -1.4439    1.0639 C   0  0  0  0  0  0  0  0  0  0  0  0
   -2.3263   -2.6904    0.6882 N   0  0  0  0  0  0  0  0  0  0  0  0
   -2.8711   -3.2786    1.7495 N   0  0  0  0  0  0  0  0  0  0  0  0
   -2.8167   -2.3786    2.7496 C   0  0  0  0  0  0  0  0  0  0  0  0
   -3.2379   -2.5680    4.0632 C   0  0  0  0  0  0  0  0  0  0  0  0
   -3.0333   -1.5117    4.9670 C   0  0  0  0  0  0  0  0  0  0  0  0
   -2.4091   -0.3211    4.5426 C   0  0  0  0  0  0  0  0  0  0  0  0
   -2.0026   -0.1915    3.2056 C   0  0  0  0  0  0  0  0  0  0  0  0
   -2.2505   -1.2271    2.3612 N   0  0  0  0  0  0  0  0  0  0  0  0
   -0.7438    1.8599   -0.4964 C   0  0  0  0  0  0  0  0  0  0  0  0
   -1.2280    3.1170   -0.8991 C   0  0  0  0  0  0  0  0  0  0  0  0
   -0.3703    4.0515   -1.4836 C   0  0  0  0  0  0  0  0  0  0  0  0
    0.9773    3.7433   -1.6768 C   0  0  0  0  0  0  0  0  0  0  0  0
    1.4796    2.4922   -1.2954 C   0  0  0  0  0  0  0  0  0  0  0  0
    0.6192    1.5635   -0.6821 C   0  0  0  0  0  0  0  0  0  0  0  0
    2.8782    2.2084   -1.4742 N   0  0  0  0  0  0  0  0  0  0  0  0
    3.4170    0.8960   -1.7109 C   0  0  0  0  0  0  0  0  0  0  0  0
    2.6924   -0.0744   -2.4282 C   0  0  0  0  0  0  0  0  0  0  0  0
    3.2476   -1.3356   -2.6660 C   0  0  0  0  0  0  0  0  0  0  0  0
    4.5327   -1.6335   -2.2056 C   0  0  0  0  0  0  0  0  0  0  0  0
    5.2680   -0.6678   -1.5134 C   0  0  0  0  0  0  0  0  0  0  0  0
    4.7160    0.5944   -1.2734 C   0  0  0  0  0  0  0  0  0  0  0  0
   -0.7118   -0.9104   -0.5692 H   0  0  0  0  0  0  0  0  0  0  0  0
   -3.6950   -3.4965    4.3800 H   0  0  0  0  0  0  0  0  0  0  0  0
   -3.3438   -1.6185    5.9982 H   0  0  0  0  0  0  0  0  0  0  0  0
   -2.2349    0.4834    5.2452 H   0  0  0  0  0  0  0  0  0  0  0  0
   -1.4921    0.7017    2.8723 H   0  0  0  0  0  0  0  0  0  0  0  0
   -2.2705    3.3774   -0.7649 H   0  0  0  0  0  0  0  0  0  0  0  0
   -0.7516    5.0178   -1.7878 H   0  0  0  0  0  0  0  0  0  0  0  0
    1.6312    4.4775   -2.1306 H   0  0  0  0  0  0  0  0  0  0  0  0
    1.0229    0.6267   -0.3220 H   0  0  0  0  0  0  0  0  0  0  0  0
    3.5483    3.0097   -1.4286 H   0  0  0  0  0  0  0  0  0  0  0  0
    1.7070    0.1470   -2.8168 H   0  0  0  0  0  0  0  0  0  0  0  0
    2.6840   -2.0796   -3.2141 H   0  0  0  0  0  0  0  0  0  0  0  0
    4.9616   -2.6097   -2.3920 H   0  0  0  0  0  0  0  0  0  0  0  0
    6.2666   -0.8965   -1.1643 H   0  0  0  0  0  0  0  0  0  0  0  0
    5.2959    1.3354   -0.7375 H   0  0  0  0  0  0  0  0  0  0  0  0
  1  2  2  0
  2  3  1  0
  3  4  1  0
  4  5  2  0
  5  6  1  0
  6  7  2  0
  7  8  1  0
  8  9  2  0
  9 10  1  0
 10 11  2  0
 11 12  1  0
  2 13  1  0
 13 14  2  0
 14 15  1  0
 15 16  2  0
 16 17  1  0
 17 18  2  0
 17 19  1  0
 19 20  1  0
 20 21  2  0
 21 22  1  0
 22 23  2  0
 23 24  1  0
 24 25  2  0
 12  4  1  0
 12  7  1  0
 13 18  1  0
 20 25  1  0
  3 26  1  0
  8 27  1  0
  9 28  1  0
 10 29  1  0
 11 30  1  0
 14 31  1  0
 15 32  1  0
 16 33  1  0
 18 34  1  0
 19 35  1  0
 21 36  1  0
 22 37  1  0
 23 38  1  0
 24 39  1  0
 25 40  1  0
M  END
$$$$
