
     RDKit          3D

 48 51  0  0  0  0  0  0  0  0999 V2000
   -1.9794   -2.9025    4.0169 C   0  0  0  0  0  0  0  0  0  0  0  0
   -1.3628   -1.4915    3.9521 C   0  0  0  0  0  0  0  0  0  0  0  0
   -2.3416   -0.4876    4.5782 C   0  0  0  0  0  0  0  0  0  0  0  0
   -0.1673   -1.4517    4.6956 O   0  0  0  0  0  0  0  0  0  0  0  0
   -1.0919   -1.0811    2.4895 C   0  0  0  0  0  0  0  0  0  0  0  0
   -0.1959   -1.9792    1.8795 O   0  0  0  0  0  0  0  0  0  0  0  0
   -0.1153   -1.6206    0.5697 N   0  0  0  0  0  0  0  0  0  0  0  0
    0.9725   -0.8187    0.0976 C   0  0  0  0  0  0  0  0  0  0  0  0
    1.8102   -0.3601    0.9181 O   0  0  0  0  0  0  0  0  0  0  0  0
    1.1858   -0.6174   -1.3479 C   0  0  0  0  0  0  0  0  0  0  0  0
    2.4600   -0.8568   -1.9037 C   0  0  0  0  0  0  0  0  0  0  0  0
    2.6367   -0.8659   -3.3095 C   0  0  0  0  0  0  0  0  0  0  0  0
    1.5776   -0.6160   -4.1367 N   0  0  0  0  0  0  0  0  0  0  0  0
    0.3641   -0.3598   -3.5948 C   0  0  0  0  0  0  0  0  0  0  0  0
   -0.7389   -0.0902   -4.2416 O   0  0  0  0  0  0  0  0  0  0  0  0
   -1.6978    0.1607   -3.3948 N   0  0  0  0  0  0  0  0  0  0  0  0
   -1.1879    0.0406   -2.1441 C   0  0  0  0  0  0  0  0  0  0  0  0
   -1.9295    0.4723   -0.9460 C   0  0  0  0  0  0  0  0  0  0  0  0
   -1.3647    1.3966   -0.0502 C   0  0  0  0  0  0  0  0  0  0  0  0
   -2.1112    1.8772    1.0308 C   0  0  0  0  0  0  0  0  0  0  0  0
   -3.4230    1.4374    1.2261 C   0  0  0  0  0  0  0  0  0  0  0  0
   -3.9953    0.5268    0.3326 C   0  0  0  0  0  0  0  0  0  0  0  0
   -3.2557    0.0539   -0.7567 C   0  0  0  0  0  0  0  0  0  0  0  0
    0.1496   -0.3227   -2.2485 C   0  0  0  0  0  0  0  0  0  0  0  0
    3.9959   -1.0986   -3.8977 C   0  0  0  0  0  0  0  0  0  0  0  0
    4.6062   -2.4589   -3.5935 C   0  0  0  0  0  0  0  0  0  0  0  0
    4.0490   -2.1702   -4.9761 C   0  0  0  0  0  0  0  0  0  0  0  0
   -2.9430   -2.9328    3.4657 H   0  0  0  0  0  0  0  0  0  0  0  0
   -2.1643   -3.1947    5.0714 H   0  0  0  0  0  0  0  0  0  0  0  0
   -1.2957   -3.6532    3.5694 H   0  0  0  0  0  0  0  0  0  0  0  0
   -2.5476   -0.7573    5.6380 H   0  0  0  0  0  0  0  0  0  0  0  0
   -1.9091    0.5367    4.5618 H   0  0  0  0  0  0  0  0  0  0  0  0
   -3.3046   -0.4735    4.0222 H   0  0  0  0  0  0  0  0  0  0  0  0
    0.4460   -2.1433    4.3340 H   0  0  0  0  0  0  0  0  0  0  0  0
   -0.6540   -0.0596    2.4815 H   0  0  0  0  0  0  0  0  0  0  0  0
   -2.0592   -1.0678    1.9369 H   0  0  0  0  0  0  0  0  0  0  0  0
   -0.7751   -2.0559   -0.1145 H   0  0  0  0  0  0  0  0  0  0  0  0
    3.2986   -1.0821   -1.2563 H   0  0  0  0  0  0  0  0  0  0  0  0
   -0.3587    1.7651   -0.2025 H   0  0  0  0  0  0  0  0  0  0  0  0
   -1.6728    2.5894    1.7174 H   0  0  0  0  0  0  0  0  0  0  0  0
   -3.9973    1.8040    2.0672 H   0  0  0  0  0  0  0  0  0  0  0  0
   -5.0140    0.1905    0.4817 H   0  0  0  0  0  0  0  0  0  0  0  0
   -3.7163   -0.6402   -1.4504 H   0  0  0  0  0  0  0  0  0  0  0  0
    4.7095   -0.2561   -4.0154 H   0  0  0  0  0  0  0  0  0  0  0  0
    3.9817   -3.1564   -2.9950 H   0  0  0  0  0  0  0  0  0  0  0  0
    5.7152   -2.4664   -3.5485 H   0  0  0  0  0  0  0  0  0  0  0  0
    4.8288   -2.0054   -5.7498 H   0  0  0  0  0  0  0  0  0  0  0  0
    3.1010   -2.7081   -5.1912 H   0  0  0  0  0  0  0  0  0  0  0  0
  1  2  1  0
  2  3  1  0
  2  4  1  0
  2  5  1  0
  5  6  1  0
  6  7  1  0
  7  8  1  0
  8  9  2  0
  8 10  1  0
 10 11  2  0
 11 12  1  0
 12 13  2  0
 13 14  1  0
 14 15  1  0
 15 16  1  0
 16 17  2  0
 17 18  1  0
 18 19  2  0
 19 20  1  0
 20 21  2  0
 21 22  1  0
 22 23  2  0
 17 24  1  0
 12 25  1  0
 25 26  1  0
 26 27  1  0
 10 24  1  0
 24 14  2  0
 18 23  1  0
 27 25  1  0
  1 28  1  0
  1 29  1  0
  1 30  1  0
  3 31  1  0
  3 32  1  0
  3 33  1  0
  4 34  1  0
  5 35  1  0
  5 36  1  0
  7 37  1  0
 11 38  1  0
 19 39  1  0
 20 40  1  0
 21 41  1  0
 22 42  1  0
 23 43  1  0
 25 44  1  0
 26 45  1  0
 26 46  1  0
 27 47  1  0
 27 48  1  0
M  END
$$$$
