
     RDKit          3D

 40 42  0  0  0  0  0  0  0  0999 V2000
   -0.3547    1.4653    2.0269 O   0  0  0  0  0  0  0  0  0  0  0  0
   -0.8606    0.9658    0.9846 C   0  0  0  0  0  0  0  0  0  0  0  0
   -2.2290    0.5249    0.9989 N   0  0  0  0  0  0  0  0  0  0  0  0
   -2.9440    0.1813    2.1988 C   0  0  0  0  0  0  0  0  0  0  0  0
   -4.3317    0.3765    2.2522 C   0  0  0  0  0  0  0  0  0  0  0  0
   -5.0499    0.0336    3.3994 C   0  0  0  0  0  0  0  0  0  0  0  0
   -4.3917   -0.5208    4.4989 C   0  0  0  0  0  0  0  0  0  0  0  0
   -3.0114   -0.7474    4.4603 C   0  0  0  0  0  0  0  0  0  0  0  0
   -2.2888   -0.3987    3.3015 C   0  0  0  0  0  0  0  0  0  0  0  0
   -2.4012   -1.3192    5.5877 O   0  0  0  0  0  0  0  0  0  0  0  0
   -1.0149   -1.6313    5.6916 C   0  0  0  0  0  0  0  0  0  0  0  0
   -0.6855   -2.6242    4.7866 F   0  0  0  0  0  0  0  0  0  0  0  0
   -0.7484   -2.0828    6.9696 F   0  0  0  0  0  0  0  0  0  0  0  0
   -0.0491    0.8873   -0.2545 C   0  0  0  0  0  0  0  0  0  0  0  0
   -0.4128    0.0251   -1.3043 C   0  0  0  0  0  0  0  0  0  0  0  0
    0.3632   -0.0463   -2.4648 C   0  0  0  0  0  0  0  0  0  0  0  0
    1.5272    0.7233   -2.5922 C   0  0  0  0  0  0  0  0  0  0  0  0
    1.8860    1.5968   -1.5521 C   0  0  0  0  0  0  0  0  0  0  0  0
    1.1114    1.6697   -0.3909 C   0  0  0  0  0  0  0  0  0  0  0  0
    2.2936    0.6479   -3.8062 N   0  0  0  0  0  0  0  0  0  0  0  0
    3.7236    0.7495   -3.8657 C   0  0  0  0  0  0  0  0  0  0  0  0
    4.4782    0.6561   -2.7358 N   0  0  0  0  0  0  0  0  0  0  0  0
    5.8337    0.7223   -2.7900 C   0  0  0  0  0  0  0  0  0  0  0  0
    6.4730    0.8782   -4.0187 C   0  0  0  0  0  0  0  0  0  0  0  0
    5.6894    0.9586   -5.1686 C   0  0  0  0  0  0  0  0  0  0  0  0
    4.3361    0.8887   -5.0726 N   0  0  0  0  0  0  0  0  0  0  0  0
   -2.7679    0.5674    0.1046 H   0  0  0  0  0  0  0  0  0  0  0  0
   -4.8551    0.8048    1.4065 H   0  0  0  0  0  0  0  0  0  0  0  0
   -6.1192    0.1968    3.4361 H   0  0  0  0  0  0  0  0  0  0  0  0
   -4.9579   -0.7834    5.3836 H   0  0  0  0  0  0  0  0  0  0  0  0
   -1.2284   -0.5960    3.2444 H   0  0  0  0  0  0  0  0  0  0  0  0
   -0.4019   -0.7253    5.5002 H   0  0  0  0  0  0  0  0  0  0  0  0
   -1.2858   -0.6095   -1.2273 H   0  0  0  0  0  0  0  0  0  0  0  0
    0.0654   -0.7160   -3.2619 H   0  0  0  0  0  0  0  0  0  0  0  0
    2.7494    2.2420   -1.6450 H   0  0  0  0  0  0  0  0  0  0  0  0
    1.4119    2.3529    0.3939 H   0  0  0  0  0  0  0  0  0  0  0  0
    1.7888    0.4245   -4.6939 H   0  0  0  0  0  0  0  0  0  0  0  0
    6.4138    0.6507   -1.8798 H   0  0  0  0  0  0  0  0  0  0  0  0
    7.5523    0.9313   -4.0789 H   0  0  0  0  0  0  0  0  0  0  0  0
    6.1558    1.0737   -6.1379 H   0  0  0  0  0  0  0  0  0  0  0  0
  1  2  2  0
  2  3  1  0
  3  4  1  0
  4  5  2  0
  5  6  1  0
  6  7  2  0
  7  8  1  0
  8  9  2  0
  8 10  1  0
 10 11  1  0
 11 12  1  0
 11 13  1  0
  2 14  1  0
 14 15  2  0
 15 16  1  0
 16 17  2  0
 17 18  1  0
 18 19  2  0
 17 20  1  0
 20 21  1  0
 21 22  2  0
 22 23  1  0
 23 24  2  0
 24 25  1  0
 25 26  2  0
  4  9  1  0
 14 19  1  0
 21 26  1  0
  3 27  1  0
  5 28  1  0
  6 29  1  0
  7 30  1  0
  9 31  1  0
 11 32  1  0
 15 33  1  0
 16 34  1  0
 18 35  1  0
 19 36  1  0
 20 37  1  0
 23 38  1  0
 24 39  1  0
 25 40  1  0
M  END
$$$$
