
     RDKit          3D

 48 50  0  0  0  0  0  0  0  0999 V2000
   -1.2898   -2.5154   -2.3891 O   0  0  0  0  0  0  0  0  0  0  0  0
   -0.5053   -2.6093   -1.4057 C   0  0  0  0  0  0  0  0  0  0  0  0
   -0.0179   -1.4285   -0.7509 N   0  0  0  0  0  0  0  0  0  0  0  0
   -0.1206   -0.1027   -1.2986 C   0  0  0  0  0  0  0  0  0  0  0  0
   -0.0167    0.1275   -2.6810 C   0  0  0  0  0  0  0  0  0  0  0  0
   -0.0832    1.4276   -3.1846 C   0  0  0  0  0  0  0  0  0  0  0  0
   -0.2450    2.5102   -2.3177 C   0  0  0  0  0  0  0  0  0  0  0  0
   -0.3407    2.3043   -0.9303 C   0  0  0  0  0  0  0  0  0  0  0  0
   -0.2601    0.9911   -0.4299 C   0  0  0  0  0  0  0  0  0  0  0  0
   -0.4947    3.4625   -0.0163 C   0  0  0  0  0  0  0  0  0  0  0  0
   -0.1411    4.6080   -0.4091 O   0  0  0  0  0  0  0  0  0  0  0  0
   -1.0738    3.2996    1.2910 N   0  0  0  0  0  0  0  0  0  0  0  0
   -0.9573    4.2722    2.3436 C   0  0  0  0  0  0  0  0  0  0  0  0
   -1.6736    4.1000    3.5371 C   0  0  0  0  0  0  0  0  0  0  0  0
   -1.5434    5.0413    4.5603 C   0  0  0  0  0  0  0  0  0  0  0  0
   -0.7005    6.1414    4.3895 C   0  0  0  0  0  0  0  0  0  0  0  0
   -0.5253    7.3320    5.6654 Cl  0  0  0  0  0  0  0  0  0  0  0  0
    0.0035    6.2808    3.1909 C   0  0  0  0  0  0  0  0  0  0  0  0
   -0.1373    5.3527    2.2072 N   0  0  0  0  0  0  0  0  0  0  0  0
   -0.1249   -3.9014   -0.9129 N   0  0  0  0  0  0  0  0  0  0  0  0
   -0.5613   -5.1434   -1.5634 C   0  0  0  0  0  0  0  0  0  0  0  0
   -0.2322   -6.3667   -0.6933 C   0  0  0  0  0  0  0  0  0  0  0  0
    1.1507   -6.4772   -0.4923 O   0  0  0  0  0  0  0  0  0  0  0  0
    0.0579   -5.2818   -2.9410 C   0  0  0  0  0  0  0  0  0  0  0  0
   -0.7053   -5.7967   -4.0029 C   0  0  0  0  0  0  0  0  0  0  0  0
   -0.1400   -5.9476   -5.2722 C   0  0  0  0  0  0  0  0  0  0  0  0
    1.1937   -5.5951   -5.4940 C   0  0  0  0  0  0  0  0  0  0  0  0
    1.7309   -5.7449   -6.7306 F   0  0  0  0  0  0  0  0  0  0  0  0
    1.9687   -5.0946   -4.4412 C   0  0  0  0  0  0  0  0  0  0  0  0
    3.6474   -4.6554   -4.7064 Cl  0  0  0  0  0  0  0  0  0  0  0  0
    1.4056   -4.9442   -3.1691 C   0  0  0  0  0  0  0  0  0  0  0  0
    0.3684   -1.5345    0.2143 H   0  0  0  0  0  0  0  0  0  0  0  0
    0.1464   -0.6907   -3.3697 H   0  0  0  0  0  0  0  0  0  0  0  0
   -0.0003    1.5979   -4.2503 H   0  0  0  0  0  0  0  0  0  0  0  0
   -0.2970    3.5089   -2.7333 H   0  0  0  0  0  0  0  0  0  0  0  0
   -0.2912    0.8081    0.6364 H   0  0  0  0  0  0  0  0  0  0  0  0
   -1.6429    2.4437    1.4781 H   0  0  0  0  0  0  0  0  0  0  0  0
   -2.3257    3.2463    3.6722 H   0  0  0  0  0  0  0  0  0  0  0  0
   -2.0951    4.9140    5.4829 H   0  0  0  0  0  0  0  0  0  0  0  0
    0.6640    7.1244    3.0399 H   0  0  0  0  0  0  0  0  0  0  0  0
    0.4863   -3.9458   -0.0659 H   0  0  0  0  0  0  0  0  0  0  0  0
   -1.6698   -5.1053   -1.6594 H   0  0  0  0  0  0  0  0  0  0  0  0
   -0.6147   -7.2869   -1.1903 H   0  0  0  0  0  0  0  0  0  0  0  0
   -0.7456   -6.2631    0.2890 H   0  0  0  0  0  0  0  0  0  0  0  0
    1.2832   -7.2827    0.0720 H   0  0  0  0  0  0  0  0  0  0  0  0
   -1.7387   -6.0812   -3.8487 H   0  0  0  0  0  0  0  0  0  0  0  0
   -0.7378   -6.3403   -6.0846 H   0  0  0  0  0  0  0  0  0  0  0  0
    2.0173   -4.5624   -2.3612 H   0  0  0  0  0  0  0  0  0  0  0  0
  1  2  2  0
  2  3  1  0
  3  4  1  0
  4  5  2  0
  5  6  1  0
  6  7  2  0
  7  8  1  0
  8  9  2  0
  8 10  1  0
 10 11  2  0
 10 12  1  0
 12 13  1  0
 13 14  2  0
 14 15  1  0
 15 16  2  0
 16 17  1  0
 16 18  1  0
 18 19  2  0
  2 20  1  0
 20 21  1  0
 21 22  1  0
 22 23  1  0
 21 24  1  0
 24 25  2  0
 25 26  1  0
 26 27  2  0
 27 28  1  0
 27 29  1  0
 29 30  1  0
 29 31  2  0
  4  9  1  0
 13 19  1  0
 24 31  1  0
  3 32  1  0
  5 33  1  0
  6 34  1  0
  7 35  1  0
  9 36  1  0
 12 37  1  0
 14 38  1  0
 15 39  1  0
 18 40  1  0
 20 41  1  0
 21 42  1  0
 22 43  1  0
 22 44  1  0
 23 45  1  0
 25 46  1  0
 26 47  1  0
 31 48  1  0
M  END
$$$$
