
     RDKit          3D

 55 60  0  0  0  0  0  0  0  0999 V2000
   -0.0591    7.4789   -1.3434 C   0  0  0  0  0  0  0  0  0  0  0  0
    0.9156    7.2805   -2.4579 C   0  0  0  0  0  0  0  0  0  0  0  0
    1.4690    8.2660   -3.2734 C   0  0  0  0  0  0  0  0  0  0  0  0
    2.3469    7.7181   -4.1462 N   0  0  0  0  0  0  0  0  0  0  0  0
    2.3490    6.4024   -3.8770 C   0  0  0  0  0  0  0  0  0  0  0  0
    3.1047    5.4624   -4.4936 N   0  0  0  0  0  0  0  0  0  0  0  0
    3.0088    4.1603   -4.0894 C   0  0  0  0  0  0  0  0  0  0  0  0
    2.1278    3.7851   -3.0375 C   0  0  0  0  0  0  0  0  0  0  0  0
    1.3595    4.7884   -2.4014 C   0  0  0  0  0  0  0  0  0  0  0  0
    1.4962    6.0950   -2.8578 C   0  0  0  0  0  0  0  0  0  0  0  0
    2.0461    2.3695   -2.6063 C   0  0  0  0  0  0  0  0  0  0  0  0
    2.9984    1.5854   -2.8716 O   0  0  0  0  0  0  0  0  0  0  0  0
    0.8985    1.8728   -1.9016 N   0  0  0  0  0  0  0  0  0  0  0  0
    0.8630    0.5131   -1.3757 C   0  0  1  0  0  0  0  0  0  0  0  0
    1.6707    0.3529   -0.0944 C   0  0  2  0  0  0  0  0  0  0  0  0
    2.0937   -1.0682    0.2460 C   0  0  0  0  0  0  0  0  0  0  0  0
    0.8676   -1.8080    0.5002 N   0  0  0  0  0  0  0  0  0  0  0  0
   -0.3292   -0.9917    0.3491 C   0  0  0  0  0  0  0  0  0  0  0  0
    0.1498    0.4003   -0.0357 C   0  0  2  0  0  0  0  0  0  0  0  0
    0.8454   -3.2410    0.6315 C   0  0  0  0  0  0  0  0  0  0  0  0
    1.8372   -3.9159    0.2421 O   0  0  0  0  0  0  0  0  0  0  0  0
   -0.3193   -3.9491    1.1991 C   0  0  0  0  0  0  0  0  0  0  0  0
   -0.7905   -5.1378    0.5833 C   0  0  0  0  0  0  0  0  0  0  0  0
   -1.8919   -5.8336    1.1136 C   0  0  0  0  0  0  0  0  0  0  0  0
   -2.4866   -5.3281    2.2652 C   0  0  0  0  0  0  0  0  0  0  0  0
   -3.5538   -5.8245    2.9178 N   0  0  0  0  0  0  0  0  0  0  0  0
   -3.7075   -4.9506    3.9457 C   0  0  0  0  0  0  0  0  0  0  0  0
   -4.7727   -5.0646    4.8911 N   0  0  0  0  0  0  0  0  0  0  0  0
   -2.7811   -3.9557    3.9652 N   0  0  0  0  0  0  0  0  0  0  0  0
   -2.7104   -2.8161    4.8790 C   0  0  0  0  0  0  0  0  0  0  0  0
   -2.0251   -4.1995    2.8803 C   0  0  0  0  0  0  0  0  0  0  0  0
   -0.9387   -3.4783    2.3786 C   0  0  0  0  0  0  0  0  0  0  0  0
   -0.4364    8.5235   -1.3406 H   0  0  0  0  0  0  0  0  0  0  0  0
   -0.9180    6.7869   -1.4706 H   0  0  0  0  0  0  0  0  0  0  0  0
    0.4388    7.2698   -0.3733 H   0  0  0  0  0  0  0  0  0  0  0  0
    1.2478    9.3244   -3.2244 H   0  0  0  0  0  0  0  0  0  0  0  0
    2.9133    8.2180   -4.8672 H   0  0  0  0  0  0  0  0  0  0  0  0
    3.6123    3.4145   -4.5902 H   0  0  0  0  0  0  0  0  0  0  0  0
    0.7018    4.5713   -1.5708 H   0  0  0  0  0  0  0  0  0  0  0  0
    0.0162    2.4305   -1.8799 H   0  0  0  0  0  0  0  0  0  0  0  0
    0.8320   -0.3400   -2.0882 H   0  0  0  0  0  0  0  0  0  0  0  0
    2.1700    1.2395    0.3526 H   0  0  0  0  0  0  0  0  0  0  0  0
    2.6528   -1.5124   -0.6059 H   0  0  0  0  0  0  0  0  0  0  0  0
    2.7278   -1.0681    1.1576 H   0  0  0  0  0  0  0  0  0  0  0  0
   -0.8828   -0.9303    1.3073 H   0  0  0  0  0  0  0  0  0  0  0  0
   -0.9866   -1.4073   -0.4450 H   0  0  0  0  0  0  0  0  0  0  0  0
   -0.2524    1.3149    0.4509 H   0  0  0  0  0  0  0  0  0  0  0  0
   -0.3139   -5.5138   -0.3136 H   0  0  0  0  0  0  0  0  0  0  0  0
   -2.2654   -6.7322    0.6394 H   0  0  0  0  0  0  0  0  0  0  0  0
   -4.9062   -4.3605    5.6488 H   0  0  0  0  0  0  0  0  0  0  0  0
   -5.4495   -5.8563    4.8192 H   0  0  0  0  0  0  0  0  0  0  0  0
   -1.6929   -2.3753    4.8829 H   0  0  0  0  0  0  0  0  0  0  0  0
   -3.4434   -2.0430    4.5673 H   0  0  0  0  0  0  0  0  0  0  0  0
   -2.9334   -3.1422    5.9160 H   0  0  0  0  0  0  0  0  0  0  0  0
   -0.5660   -2.6017    2.8906 H   0  0  0  0  0  0  0  0  0  0  0  0
  1  2  1  0
  2  3  2  0
  3  4  1  0
  4  5  1  0
  5  6  2  0
  6  7  1  0
  7  8  2  0
  8  9  1  0
  9 10  2  0
  8 11  1  0
 11 12  2  0
 11 13  1  0
 13 14  1  0
 14 15  1  0
 15 16  1  0
 16 17  1  0
 17 18  1  0
 18 19  1  0
 17 20  1  0
 20 21  2  0
 20 22  1  0
 22 23  2  0
 23 24  1  0
 24 25  2  0
 25 26  1  0
 26 27  2  0
 27 28  1  0
 27 29  1  0
 29 30  1  0
 29 31  1  0
 31 32  2  0
 10  2  1  0
  5 10  1  0
 19 14  1  0
 19 15  1  0
 22 32  1  0
 25 31  1  0
  1 33  1  0
  1 34  1  0
  1 35  1  0
  3 36  1  0
  4 37  1  0
  7 38  1  0
  9 39  1  0
 13 40  1  0
 14 41  1  6
 15 42  1  1
 16 43  1  0
 16 44  1  0
 18 45  1  0
 18 46  1  0
 19 47  1  1
 23 48  1  0
 24 49  1  0
 28 50  1  0
 28 51  1  0
 30 52  1  0
 30 53  1  0
 30 54  1  0
 32 55  1  0
M  END
$$$$
