
     RDKit          3D

 41 44  0  0  0  0  0  0  0  0999 V2000
   -2.0566    1.1393    1.2700 O   0  0  0  0  0  0  0  0  0  0  0  0
   -2.5232    0.2326    0.5270 C   0  0  0  0  0  0  0  0  0  0  0  0
   -2.2430    0.2537   -0.8829 N   0  0  0  0  0  0  0  0  0  0  0  0
   -1.1097    0.9243   -1.4614 C   0  0  0  0  0  0  0  0  0  0  0  0
   -1.2058    1.4407   -2.7611 C   0  0  0  0  0  0  0  0  0  0  0  0
   -0.1154    2.0861   -3.3469 C   0  0  0  0  0  0  0  0  0  0  0  0
    1.0879    2.2059   -2.6487 C   0  0  0  0  0  0  0  0  0  0  0  0
    1.2177    1.6660   -1.3586 C   0  0  0  0  0  0  0  0  0  0  0  0
    0.1115    1.0280   -0.7699 C   0  0  0  0  0  0  0  0  0  0  0  0
    2.5040    1.7851   -0.6344 C   0  0  0  0  0  0  0  0  0  0  0  0
    3.3580    2.8269   -0.7589 N   0  0  0  0  0  0  0  0  0  0  0  0
    4.4289    2.6296   -0.0007 N   0  0  0  0  0  0  0  0  0  0  0  0
    4.2543    1.4513    0.6245 C   0  0  0  0  0  0  0  0  0  0  0  0
    5.2328    0.7493    1.5053 C   0  0  0  0  0  0  0  0  0  0  0  0
    4.5352   -0.4680    2.1527 C   0  0  0  0  0  0  0  0  0  0  0  0
    3.7857   -1.2080    1.1929 O   0  0  0  0  0  0  0  0  0  0  0  0
    2.6537   -0.4669    0.7491 C   0  0  0  0  0  0  0  0  0  0  0  0
    3.0764    0.8795    0.2411 C   0  0  0  0  0  0  0  0  0  0  0  0
   -3.3953   -0.8138    1.1132 C   0  0  0  0  0  0  0  0  0  0  0  0
   -3.9772   -0.6302    2.3799 C   0  0  0  0  0  0  0  0  0  0  0  0
   -4.7712   -1.5937    2.9183 N   0  0  0  0  0  0  0  0  0  0  0  0
   -5.0257   -2.7585    2.2675 C   0  0  0  0  0  0  0  0  0  0  0  0
   -4.4620   -2.9952    1.0098 C   0  0  0  0  0  0  0  0  0  0  0  0
   -4.7034   -4.1870    0.3304 O   0  0  0  0  0  0  0  0  0  0  0  0
   -3.6439   -2.0195    0.4349 C   0  0  0  0  0  0  0  0  0  0  0  0
   -2.9586   -0.1449   -1.5317 H   0  0  0  0  0  0  0  0  0  0  0  0
   -2.1319    1.3540   -3.3154 H   0  0  0  0  0  0  0  0  0  0  0  0
   -0.2018    2.4912   -4.3469 H   0  0  0  0  0  0  0  0  0  0  0  0
    1.9242    2.6979   -3.1288 H   0  0  0  0  0  0  0  0  0  0  0  0
    0.1969    0.6157    0.2241 H   0  0  0  0  0  0  0  0  0  0  0  0
    3.2170    3.6762   -1.3494 H   0  0  0  0  0  0  0  0  0  0  0  0
    6.0895    0.4035    0.8884 H   0  0  0  0  0  0  0  0  0  0  0  0
    5.6033    1.4407    2.2915 H   0  0  0  0  0  0  0  0  0  0  0  0
    5.3104   -1.1331    2.5877 H   0  0  0  0  0  0  0  0  0  0  0  0
    3.8832   -0.1361    2.9933 H   0  0  0  0  0  0  0  0  0  0  0  0
    1.9231   -0.3493    1.5790 H   0  0  0  0  0  0  0  0  0  0  0  0
    2.1633   -1.0290   -0.0726 H   0  0  0  0  0  0  0  0  0  0  0  0
   -3.8089    0.2811    2.9390 H   0  0  0  0  0  0  0  0  0  0  0  0
   -5.6625   -3.5007    2.7305 H   0  0  0  0  0  0  0  0  0  0  0  0
   -5.2918   -4.9113    0.7255 H   0  0  0  0  0  0  0  0  0  0  0  0
   -3.1934   -2.2190   -0.5286 H   0  0  0  0  0  0  0  0  0  0  0  0
  1  2  2  0
  2  3  1  0
  3  4  1  0
  4  5  2  0
  5  6  1  0
  6  7  2  0
  7  8  1  0
  8  9  2  0
  8 10  1  0
 10 11  1  0
 11 12  1  0
 12 13  2  0
 13 14  1  0
 14 15  1  0
 15 16  1  0
 16 17  1  0
 17 18  1  0
  2 19  1  0
 19 20  2  0
 20 21  1  0
 21 22  2  0
 22 23  1  0
 23 24  1  0
 23 25  2  0
  4  9  1  0
 10 18  2  0
 18 13  1  0
 25 19  1  0
  3 26  1  0
  5 27  1  0
  6 28  1  0
  7 29  1  0
  9 30  1  0
 11 31  1  0
 14 32  1  0
 14 33  1  0
 15 34  1  0
 15 35  1  0
 17 36  1  0
 17 37  1  0
 20 38  1  0
 22 39  1  0
 24 40  1  0
 25 41  1  0
M  END
$$$$
