
     RDKit          3D

 45 48  0  0  0  0  0  0  0  0999 V2000
   -0.3824    0.6205   -5.1468 C   0  0  0  0  0  0  0  0  0  0  0  0
   -0.1807   -0.7137   -5.5093 C   0  0  0  0  0  0  0  0  0  0  0  0
    0.5235   -1.5723   -4.6592 C   0  0  0  0  0  0  0  0  0  0  0  0
    1.0193   -1.1067   -3.4313 C   0  0  0  0  0  0  0  0  0  0  0  0
    1.7516   -2.0049   -2.5798 N   0  0  0  0  0  0  0  0  0  0  0  0
    1.6929   -1.9784   -1.1466 C   0  0  0  0  0  0  0  0  0  0  0  0
    0.7407   -1.2277   -0.5005 N   0  0  0  0  0  0  0  0  0  0  0  0
    0.6516   -1.1991    0.8631 C   0  0  0  0  0  0  0  0  0  0  0  0
   -0.3055   -0.4196    1.5165 O   0  0  0  0  0  0  0  0  0  0  0  0
   -1.2394    0.3924    0.8104 C   0  0  0  0  0  0  0  0  0  0  0  0
   -2.1105    1.1824    1.8049 C   0  0  0  0  0  0  0  0  0  0  0  0
   -3.2478    1.9443    1.0904 C   0  0  0  0  0  0  0  0  0  0  0  0
   -2.7378    3.1716    0.3211 C   0  0  0  0  0  0  0  0  0  0  0  0
   -1.9457    4.1085    1.2390 C   0  0  0  0  0  0  0  0  0  0  0  0
   -0.7829    3.3719    1.9124 C   0  0  0  0  0  0  0  0  0  0  0  0
   -1.2791    2.1420    2.6867 C   0  0  0  0  0  0  0  0  0  0  0  0
    1.5541   -1.9719    1.5760 C   0  0  0  0  0  0  0  0  0  0  0  0
    1.6956   -2.1353    2.8954 N   0  0  0  0  0  0  0  0  0  0  0  0
    2.7339   -3.0033    3.0005 C   0  0  0  0  0  0  0  0  0  0  0  0
    3.2487   -3.3897    1.8002 N   0  0  0  0  0  0  0  0  0  0  0  0
    2.4775   -2.7171    0.9298 C   0  0  0  0  0  0  0  0  0  0  0  0
    2.5685   -2.7425   -0.4218 N   0  0  0  0  0  0  0  0  0  0  0  0
    0.8346    0.2458   -3.0864 C   0  0  0  0  0  0  0  0  0  0  0  0
    0.1288    1.1008   -3.9385 C   0  0  0  0  0  0  0  0  0  0  0  0
   -0.9268    1.2842   -5.8061 H   0  0  0  0  0  0  0  0  0  0  0  0
   -0.5694   -1.0829   -6.4496 H   0  0  0  0  0  0  0  0  0  0  0  0
    0.6729   -2.6044   -4.9506 H   0  0  0  0  0  0  0  0  0  0  0  0
    2.2863   -2.7837   -3.0272 H   0  0  0  0  0  0  0  0  0  0  0  0
   -0.6931    1.0786    0.1298 H   0  0  0  0  0  0  0  0  0  0  0  0
   -1.8882   -0.2649    0.1911 H   0  0  0  0  0  0  0  0  0  0  0  0
   -2.5868    0.4364    2.4796 H   0  0  0  0  0  0  0  0  0  0  0  0
   -3.7827    1.2663    0.3904 H   0  0  0  0  0  0  0  0  0  0  0  0
   -3.9889    2.2803    1.8490 H   0  0  0  0  0  0  0  0  0  0  0  0
   -2.1022    2.8529   -0.5328 H   0  0  0  0  0  0  0  0  0  0  0  0
   -3.6065    3.7237   -0.0978 H   0  0  0  0  0  0  0  0  0  0  0  0
   -1.5457    4.9555    0.6411 H   0  0  0  0  0  0  0  0  0  0  0  0
   -2.6215    4.5280    2.0166 H   0  0  0  0  0  0  0  0  0  0  0  0
   -0.2762    4.0643    2.6187 H   0  0  0  0  0  0  0  0  0  0  0  0
   -0.0342    3.0699    1.1492 H   0  0  0  0  0  0  0  0  0  0  0  0
   -0.4094    1.6082    3.1268 H   0  0  0  0  0  0  0  0  0  0  0  0
   -1.9106    2.4864    3.5354 H   0  0  0  0  0  0  0  0  0  0  0  0
    1.1402   -1.7006    3.6654 H   0  0  0  0  0  0  0  0  0  0  0  0
    3.1176   -3.3559    3.9487 H   0  0  0  0  0  0  0  0  0  0  0  0
    1.2537    0.6483   -2.1739 H   0  0  0  0  0  0  0  0  0  0  0  0
   -0.0140    2.1385   -3.6658 H   0  0  0  0  0  0  0  0  0  0  0  0
  1  2  2  0
  2  3  1  0
  3  4  2  0
  4  5  1  0
  5  6  1  0
  6  7  2  0
  7  8  1  0
  8  9  1  0
  9 10  1  0
 10 11  1  0
 11 12  1  0
 12 13  1  0
 13 14  1  0
 14 15  1  0
 15 16  1  0
  8 17  2  0
 17 18  1  0
 18 19  1  0
 19 20  2  0
 20 21  1  0
 21 22  2  0
  4 23  1  0
 23 24  2  0
 24  1  1  0
 22  6  1  0
 16 11  1  0
 21 17  1  0
  1 25  1  0
  2 26  1  0
  3 27  1  0
  5 28  1  0
 10 29  1  0
 10 30  1  0
 11 31  1  0
 12 32  1  0
 12 33  1  0
 13 34  1  0
 13 35  1  0
 14 36  1  0
 14 37  1  0
 15 38  1  0
 15 39  1  0
 16 40  1  0
 16 41  1  0
 18 42  1  0
 19 43  1  0
 23 44  1  0
 24 45  1  0
M  END
$$$$
