
     RDKit          3D

 51 54  0  0  0  0  0  0  0  0999 V2000
   -0.3565   -3.2048   -0.1037 O   0  0  0  0  0  0  0  0  0  0  0  0
   -0.5211   -2.8869   -1.3127 C   0  0  0  0  0  0  0  0  0  0  0  0
   -1.7142   -3.4195   -2.0534 C   0  0  0  0  0  0  0  0  0  0  0  0
   -3.0024   -2.6585   -1.6816 C   0  0  0  0  0  0  0  0  0  0  0  0
   -4.2558   -3.3811   -2.2554 C   0  0  0  0  0  0  0  0  0  0  0  0
   -5.4963   -2.4460   -2.3392 C   0  0  0  0  0  0  0  0  0  0  0  0
   -5.6345   -1.8262   -3.7363 C   0  0  0  0  0  0  0  0  0  0  0  0
   -4.8613   -0.5200   -3.6372 C   0  0  0  0  0  0  0  0  0  0  0  0
   -4.3444   -0.5039   -2.1925 C   0  0  0  0  0  0  0  0  0  0  0  0
   -2.9355   -1.1556   -2.0888 C   0  0  0  0  0  0  0  0  0  0  0  0
   -5.2930   -1.3168   -1.4330 N   0  0  0  0  0  0  0  0  0  0  0  0
    0.3750   -1.9662   -1.9559 N   0  0  0  0  0  0  0  0  0  0  0  0
    1.6018   -1.4971   -1.3718 C   0  0  0  0  0  0  0  0  0  0  0  0
    2.0274   -0.1872   -1.6280 C   0  0  0  0  0  0  0  0  0  0  0  0
    3.2253    0.2886   -1.0894 C   0  0  0  0  0  0  0  0  0  0  0  0
    4.0294   -0.5477   -0.2917 C   0  0  0  0  0  0  0  0  0  0  0  0
    5.2383   -0.1097    0.2759 O   0  0  0  0  0  0  0  0  0  0  0  0
    5.7356    1.2282    0.2328 C   0  0  0  0  0  0  0  0  0  0  0  0
    4.8958    2.1391    1.0878 C   0  0  0  0  0  0  0  0  0  0  0  0
    4.6183    1.8050    2.4213 C   0  0  0  0  0  0  0  0  0  0  0  0
    3.8483    2.6614    3.2101 C   0  0  0  0  0  0  0  0  0  0  0  0
    3.3691    3.8517    2.6601 C   0  0  0  0  0  0  0  0  0  0  0  0
    3.6561    4.1695    1.3699 N   0  0  0  0  0  0  0  0  0  0  0  0
    4.4033    3.3516    0.5809 C   0  0  0  0  0  0  0  0  0  0  0  0
    3.6168   -1.8685   -0.0581 C   0  0  0  0  0  0  0  0  0  0  0  0
    4.6045   -2.9496    0.9133 Cl  0  0  0  0  0  0  0  0  0  0  0  0
    2.4158   -2.3415   -0.5985 C   0  0  0  0  0  0  0  0  0  0  0  0
   -1.5382   -3.3604   -3.1496 H   0  0  0  0  0  0  0  0  0  0  0  0
   -1.8332   -4.4947   -1.7959 H   0  0  0  0  0  0  0  0  0  0  0  0
   -3.1044   -2.6890   -0.5720 H   0  0  0  0  0  0  0  0  0  0  0  0
   -4.0269   -3.8264   -3.2482 H   0  0  0  0  0  0  0  0  0  0  0  0
   -4.5005   -4.2344   -1.5852 H   0  0  0  0  0  0  0  0  0  0  0  0
   -6.4181   -3.0087   -2.0698 H   0  0  0  0  0  0  0  0  0  0  0  0
   -5.2420   -2.4744   -4.5493 H   0  0  0  0  0  0  0  0  0  0  0  0
   -6.7063   -1.6137   -3.9450 H   0  0  0  0  0  0  0  0  0  0  0  0
   -5.5513    0.3381   -3.7953 H   0  0  0  0  0  0  0  0  0  0  0  0
   -4.0532   -0.4631   -4.3978 H   0  0  0  0  0  0  0  0  0  0  0  0
   -4.3137    0.5376   -1.8013 H   0  0  0  0  0  0  0  0  0  0  0  0
   -2.3517   -0.6112   -1.3143 H   0  0  0  0  0  0  0  0  0  0  0  0
   -2.3745   -1.0360   -3.0405 H   0  0  0  0  0  0  0  0  0  0  0  0
   -6.1945   -0.7889   -1.3430 H   0  0  0  0  0  0  0  0  0  0  0  0
    0.0703   -1.5384   -2.8594 H   0  0  0  0  0  0  0  0  0  0  0  0
    1.4222    0.4705   -2.2395 H   0  0  0  0  0  0  0  0  0  0  0  0
    3.5168    1.3058   -1.3063 H   0  0  0  0  0  0  0  0  0  0  0  0
    5.7917    1.5789   -0.8205 H   0  0  0  0  0  0  0  0  0  0  0  0
    6.7710    1.2309    0.6331 H   0  0  0  0  0  0  0  0  0  0  0  0
    4.9949    0.8828    2.8464 H   0  0  0  0  0  0  0  0  0  0  0  0
    3.6265    2.4061    4.2383 H   0  0  0  0  0  0  0  0  0  0  0  0
    2.7715    4.5248    3.2601 H   0  0  0  0  0  0  0  0  0  0  0  0
    4.6091    3.6457   -0.4401 H   0  0  0  0  0  0  0  0  0  0  0  0
    2.1352   -3.3733   -0.4330 H   0  0  0  0  0  0  0  0  0  0  0  0
  1  2  2  0
  2  3  1  0
  3  4  1  0
  4  5  1  0
  5  6  1  0
  6  7  1  0
  7  8  1  0
  8  9  1  0
  9 10  1  0
  9 11  1  0
  2 12  1  0
 12 13  1  0
 13 14  2  0
 14 15  1  0
 15 16  2  0
 16 17  1  0
 17 18  1  0
 18 19  1  0
 19 20  2  0
 20 21  1  0
 21 22  2  0
 22 23  1  0
 23 24  2  0
 16 25  1  0
 25 26  1  0
 25 27  2  0
 10  4  1  0
 11  6  1  0
 13 27  1  0
 24 19  1  0
  3 28  1  0
  3 29  1  0
  4 30  1  0
  5 31  1  0
  5 32  1  0
  6 33  1  0
  7 34  1  0
  7 35  1  0
  8 36  1  0
  8 37  1  0
  9 38  1  0
 10 39  1  0
 10 40  1  0
 11 41  1  0
 12 42  1  0
 14 43  1  0
 15 44  1  0
 18 45  1  0
 18 46  1  0
 20 47  1  0
 21 48  1  0
 22 49  1  0
 24 50  1  0
 27 51  1  0
M  END
$$$$
