
     RDKit          3D

 59 62  0  0  0  0  0  0  0  0999 V2000
   -1.3184    3.6135    4.5564 C   0  0  0  0  0  0  0  0  0  0  0  0
   -1.0598    2.3387    3.8125 C   0  0  0  0  0  0  0  0  0  0  0  0
   -1.6840    1.9661    2.6393 C   0  0  0  0  0  0  0  0  0  0  0  0
   -1.0964    0.7574    2.3235 C   0  0  0  0  0  0  0  0  0  0  0  0
   -0.1738    0.4223    3.2473 N   0  0  0  0  0  0  0  0  0  0  0  0
   -0.1649    1.3814    4.1587 N   0  0  0  0  0  0  0  0  0  0  0  0
    0.7068    1.3692    5.3001 C   0  0  0  0  0  0  0  0  0  0  0  0
    0.2061    1.6382    6.5867 C   0  0  0  0  0  0  0  0  0  0  0  0
    1.0603    1.6127    7.6938 C   0  0  0  0  0  0  0  0  0  0  0  0
    2.4166    1.3156    7.5281 C   0  0  0  0  0  0  0  0  0  0  0  0
    3.2431    1.2979    8.6030 F   0  0  0  0  0  0  0  0  0  0  0  0
    2.9197    1.0306    6.2548 C   0  0  0  0  0  0  0  0  0  0  0  0
    2.0687    1.0482    5.1441 C   0  0  0  0  0  0  0  0  0  0  0  0
    2.5762    0.7801    3.9161 F   0  0  0  0  0  0  0  0  0  0  0  0
   -1.3874   -0.0135    1.1509 N   0  0  0  0  0  0  0  0  0  0  0  0
   -0.8885   -1.3412    0.9320 C   0  0  0  0  0  0  0  0  0  0  0  0
   -0.2964   -1.9606    1.8585 O   0  0  0  0  0  0  0  0  0  0  0  0
   -1.0932   -1.9737   -0.3397 N   0  0  0  0  0  0  0  0  0  0  0  0
   -0.7173   -3.3730   -0.5886 C   0  0  0  0  0  0  0  0  0  0  0  0
    0.8105   -3.5114   -0.7564 C   0  0  0  0  0  0  0  0  0  0  0  0
    1.2732   -3.3730   -2.2193 C   0  0  0  0  0  0  0  0  0  0  0  0
    0.3386   -2.5191   -2.9872 N   0  0  0  0  0  0  0  0  0  0  0  0
   -0.9698   -3.2163   -3.1286 C   0  0  0  0  0  0  0  0  0  0  0  0
   -1.4361   -3.9153   -1.8314 C   0  0  0  0  0  0  0  0  0  0  0  0
    0.8838   -2.1432   -4.3257 C   0  0  0  0  0  0  0  0  0  0  0  0
    2.2041   -1.3509   -4.2197 C   0  0  0  0  0  0  0  0  0  0  0  0
   -0.1086   -1.2844   -5.0947 C   0  0  0  0  0  0  0  0  0  0  0  0
   -0.5133   -1.6521   -6.3897 C   0  0  0  0  0  0  0  0  0  0  0  0
   -1.4120   -0.8496   -7.1016 C   0  0  0  0  0  0  0  0  0  0  0  0
   -1.9110    0.3258   -6.5300 C   0  0  0  0  0  0  0  0  0  0  0  0
   -1.5149    0.7002   -5.2436 C   0  0  0  0  0  0  0  0  0  0  0  0
   -0.6169   -0.0987   -4.5287 C   0  0  0  0  0  0  0  0  0  0  0  0
   -1.7043    4.3897    3.8616 H   0  0  0  0  0  0  0  0  0  0  0  0
   -2.0720    3.4367    5.3503 H   0  0  0  0  0  0  0  0  0  0  0  0
   -0.3778    3.9922    5.0090 H   0  0  0  0  0  0  0  0  0  0  0  0
   -2.4393    2.5062    2.0825 H   0  0  0  0  0  0  0  0  0  0  0  0
   -0.8459    1.8486    6.7342 H   0  0  0  0  0  0  0  0  0  0  0  0
    0.6693    1.8233    8.6818 H   0  0  0  0  0  0  0  0  0  0  0  0
    3.9691    0.7959    6.1290 H   0  0  0  0  0  0  0  0  0  0  0  0
   -2.0036    0.4122    0.4219 H   0  0  0  0  0  0  0  0  0  0  0  0
   -1.6221   -1.4413   -1.0673 H   0  0  0  0  0  0  0  0  0  0  0  0
   -1.0405   -3.9872    0.2824 H   0  0  0  0  0  0  0  0  0  0  0  0
    1.1305   -4.5080   -0.3804 H   0  0  0  0  0  0  0  0  0  0  0  0
    1.3296   -2.7530   -0.1323 H   0  0  0  0  0  0  0  0  0  0  0  0
    2.2920   -2.9414   -2.1858 H   0  0  0  0  0  0  0  0  0  0  0  0
    1.3512   -4.3792   -2.6907 H   0  0  0  0  0  0  0  0  0  0  0  0
   -1.7473   -2.4718   -3.4012 H   0  0  0  0  0  0  0  0  0  0  0  0
   -0.9313   -3.9721   -3.9455 H   0  0  0  0  0  0  0  0  0  0  0  0
   -1.2302   -5.0050   -1.9110 H   0  0  0  0  0  0  0  0  0  0  0  0
   -2.5354   -3.8008   -1.7119 H   0  0  0  0  0  0  0  0  0  0  0  0
    1.1010   -3.0700   -4.9067 H   0  0  0  0  0  0  0  0  0  0  0  0
    2.4262   -0.8263   -5.1743 H   0  0  0  0  0  0  0  0  0  0  0  0
    2.1459   -0.5966   -3.4045 H   0  0  0  0  0  0  0  0  0  0  0  0
    3.0607   -2.0322   -4.0348 H   0  0  0  0  0  0  0  0  0  0  0  0
   -0.1312   -2.5565   -6.8499 H   0  0  0  0  0  0  0  0  0  0  0  0
   -1.7205   -1.1395   -8.0977 H   0  0  0  0  0  0  0  0  0  0  0  0
   -2.6023    0.9482   -7.0848 H   0  0  0  0  0  0  0  0  0  0  0  0
   -1.9028    1.6098   -4.7993 H   0  0  0  0  0  0  0  0  0  0  0  0
   -0.3165    0.2035   -3.5345 H   0  0  0  0  0  0  0  0  0  0  0  0
  1  2  1  0
  2  3  2  0
  3  4  1  0
  4  5  2  0
  5  6  1  0
  6  7  1  0
  7  8  2  0
  8  9  1  0
  9 10  2  0
 10 11  1  0
 10 12  1  0
 12 13  2  0
 13 14  1  0
  4 15  1  0
 15 16  1  0
 16 17  2  0
 16 18  1  0
 18 19  1  0
 19 20  1  0
 20 21  1  0
 21 22  1  0
 22 23  1  0
 23 24  1  0
 22 25  1  0
 25 26  1  0
 25 27  1  0
 27 28  2  0
 28 29  1  0
 29 30  2  0
 30 31  1  0
 31 32  2  0
  6  2  1  0
  7 13  1  0
 24 19  1  0
 27 32  1  0
  1 33  1  0
  1 34  1  0
  1 35  1  0
  3 36  1  0
  8 37  1  0
  9 38  1  0
 12 39  1  0
 15 40  1  0
 18 41  1  0
 19 42  1  0
 20 43  1  0
 20 44  1  0
 21 45  1  0
 21 46  1  0
 23 47  1  0
 23 48  1  0
 24 49  1  0
 24 50  1  0
 25 51  1  0
 26 52  1  0
 26 53  1  0
 26 54  1  0
 28 55  1  0
 29 56  1  0
 30 57  1  0
 31 58  1  0
 32 59  1  0
M  END
$$$$
