
     RDKit          3D

 54 56  0  0  0  0  0  0  0  0999 V2000
   -6.4639   -1.9513    0.4642 C   0  0  0  0  0  0  0  0  0  0  0  0
   -6.0236   -1.4026    1.7022 O   0  0  0  0  0  0  0  0  0  0  0  0
   -4.6897   -1.0879    2.0019 C   0  0  0  0  0  0  0  0  0  0  0  0
   -3.6352   -1.3288    1.1017 C   0  0  0  0  0  0  0  0  0  0  0  0
   -2.3220   -0.9966    1.4493 C   0  0  0  0  0  0  0  0  0  0  0  0
   -2.0404   -0.4034    2.6921 C   0  0  0  0  0  0  0  0  0  0  0  0
   -3.0947   -0.1756    3.5911 C   0  0  0  0  0  0  0  0  0  0  0  0
   -4.4061   -0.5147    3.2456 C   0  0  0  0  0  0  0  0  0  0  0  0
   -0.6198   -0.0410    3.0799 C   0  0  2  0  0  0  0  0  0  0  0  0
    0.0499    0.6750    1.9870 N   0  0  0  0  0  0  0  0  0  0  0  0
   -0.3510    1.9879    1.5744 C   0  0  0  0  0  0  0  0  0  0  0  0
   -1.2688    2.5949    2.1873 O   0  0  0  0  0  0  0  0  0  0  0  0
    0.3476    2.6637    0.4695 C   0  0  0  0  0  0  0  0  0  0  0  0
    1.2202    3.7196    0.7700 C   0  0  0  0  0  0  0  0  0  0  0  0
    1.8912    4.3919   -0.2545 C   0  0  0  0  0  0  0  0  0  0  0  0
    1.6881    4.0254   -1.5864 C   0  0  0  0  0  0  0  0  0  0  0  0
    0.8003    2.9960   -1.8992 C   0  0  0  0  0  0  0  0  0  0  0  0
    0.1388    2.2950   -0.8808 C   0  0  0  0  0  0  0  0  0  0  0  0
   -1.0464    1.0199   -1.3395 S   0  0  0  0  0  0  0  0  0  0  0  0
    0.1780   -0.3230   -1.5132 C   0  0  0  0  0  0  0  0  0  0  0  0
    0.9321   -0.1887   -2.8065 C   0  0  0  0  0  0  0  0  0  0  0  0
    0.2988   -0.3337   -3.8872 O   0  0  0  0  0  0  0  0  0  0  0  0
    2.3402    0.1042   -2.8444 N   0  0  0  0  0  0  0  0  0  0  0  0
    3.0830    0.2017   -4.0898 C   0  0  0  0  0  0  0  0  0  0  0  0
    4.5481    0.1893   -3.6952 C   0  0  0  0  0  0  0  0  0  0  0  0
    4.5798    0.5605   -2.2159 C   0  0  0  0  0  0  0  0  0  0  0  0
    3.1911    0.2403   -1.6759 C   0  0  0  0  0  0  0  0  0  0  0  0
    0.1778   -1.2923    3.4851 C   0  0  0  0  0  0  0  0  0  0  0  0
    0.2871   -2.1768    2.4231 F   0  0  0  0  0  0  0  0  0  0  0  0
   -0.4414   -1.9293    4.5478 F   0  0  0  0  0  0  0  0  0  0  0  0
   -6.2239   -1.2577   -0.3702 H   0  0  0  0  0  0  0  0  0  0  0  0
   -7.5643   -2.0927    0.5035 H   0  0  0  0  0  0  0  0  0  0  0  0
   -5.9851   -2.9379    0.2892 H   0  0  0  0  0  0  0  0  0  0  0  0
   -3.8195   -1.7743    0.1326 H   0  0  0  0  0  0  0  0  0  0  0  0
   -1.5241   -1.2027    0.7491 H   0  0  0  0  0  0  0  0  0  0  0  0
   -2.9026    0.2648    4.5626 H   0  0  0  0  0  0  0  0  0  0  0  0
   -5.2088   -0.3293    3.9467 H   0  0  0  0  0  0  0  0  0  0  0  0
   -0.6369    0.6313    3.9673 H   0  0  0  0  0  0  0  0  0  0  0  0
    0.9027    0.2648    1.5503 H   0  0  0  0  0  0  0  0  0  0  0  0
    1.3849    4.0170    1.7999 H   0  0  0  0  0  0  0  0  0  0  0  0
    2.5676    5.2010   -0.0134 H   0  0  0  0  0  0  0  0  0  0  0  0
    2.2063    4.5504   -2.3774 H   0  0  0  0  0  0  0  0  0  0  0  0
    0.6376    2.7321   -2.9385 H   0  0  0  0  0  0  0  0  0  0  0  0
    0.8537   -0.3449   -0.6392 H   0  0  0  0  0  0  0  0  0  0  0  0
   -0.3707   -1.2887   -1.5242 H   0  0  0  0  0  0  0  0  0  0  0  0
    2.8230    1.1519   -4.6036 H   0  0  0  0  0  0  0  0  0  0  0  0
    2.8520   -0.6601   -4.7504 H   0  0  0  0  0  0  0  0  0  0  0  0
    4.9585   -0.8345   -3.8284 H   0  0  0  0  0  0  0  0  0  0  0  0
    5.1408    0.9049   -4.3062 H   0  0  0  0  0  0  0  0  0  0  0  0
    4.7835    1.6510   -2.1115 H   0  0  0  0  0  0  0  0  0  0  0  0
    5.3686   -0.0088   -1.6718 H   0  0  0  0  0  0  0  0  0  0  0  0
    2.8347    1.0588   -1.0198 H   0  0  0  0  0  0  0  0  0  0  0  0
    3.2099   -0.7165   -1.1109 H   0  0  0  0  0  0  0  0  0  0  0  0
    1.2001   -0.9937    3.8042 H   0  0  0  0  0  0  0  0  0  0  0  0
  1  2  1  0
  2  3  1  0
  3  4  2  0
  4  5  1  0
  5  6  2  0
  6  7  1  0
  7  8  2  0
  6  9  1  0
  9 10  1  0
 10 11  1  0
 11 12  2  0
 11 13  1  0
 13 14  2  0
 14 15  1  0
 15 16  2  0
 16 17  1  0
 17 18  2  0
 18 19  1  0
 19 20  1  0
 20 21  1  0
 21 22  2  0
 21 23  1  0
 23 24  1  0
 24 25  1  0
 25 26  1  0
 26 27  1  0
  9 28  1  0
 28 29  1  0
 28 30  1  0
  3  8  1  0
 13 18  1  0
 27 23  1  0
  1 31  1  0
  1 32  1  0
  1 33  1  0
  4 34  1  0
  5 35  1  0
  7 36  1  0
  8 37  1  0
  9 38  1  1
 10 39  1  0
 14 40  1  0
 15 41  1  0
 16 42  1  0
 17 43  1  0
 20 44  1  0
 20 45  1  0
 24 46  1  0
 24 47  1  0
 25 48  1  0
 25 49  1  0
 26 50  1  0
 26 51  1  0
 27 52  1  0
 27 53  1  0
 28 54  1  0
M  END
$$$$
