
     RDKit          3D

 49 51  0  0  0  0  0  0  0  0999 V2000
   -3.7984    0.0659    2.0363 C   0  0  0  0  0  0  0  0  0  0  0  0
   -3.1339    0.5214    3.3438 C   0  0  0  0  0  0  0  0  0  0  0  0
   -3.4714    1.8682    3.5945 O   0  0  0  0  0  0  0  0  0  0  0  0
   -2.3434    2.6455    3.2765 C   0  0  0  0  0  0  0  0  0  0  0  0
   -1.0963    1.8185    3.5276 C   0  0  0  0  0  0  0  0  0  0  0  0
   -1.5841    0.3750    3.4149 C   0  0  0  0  0  0  0  0  0  0  0  0
   -1.1887   -0.3954    4.6978 C   0  0  0  0  0  0  0  0  0  0  0  0
   -1.0051   -0.3354    2.2475 N   0  0  0  0  0  0  0  0  0  0  0  0
   -0.8138    0.1925    0.9187 C   0  0  0  0  0  0  0  0  0  0  0  0
   -1.1601    1.3714    0.6328 O   0  0  0  0  0  0  0  0  0  0  0  0
   -0.1753   -0.6620   -0.1486 C   0  0  0  0  0  0  0  0  0  0  0  0
   -1.0614   -0.7187   -1.4061 C   0  0  0  0  0  0  0  0  0  0  0  0
   -0.4536   -1.6801   -2.4380 C   0  0  0  0  0  0  0  0  0  0  0  0
    1.0053   -1.5273   -2.5245 N   0  0  0  0  0  0  0  0  0  0  0  0
    1.6529   -0.3434   -1.9447 C   0  0  0  0  0  0  0  0  0  0  0  0
    1.2556   -0.1593   -0.4695 C   0  0  0  0  0  0  0  0  0  0  0  0
    1.7821   -2.4939   -3.2538 C   0  0  0  0  0  0  0  0  0  0  0  0
    1.4639   -2.7961   -4.5885 C   0  0  0  0  0  0  0  0  0  0  0  0
    2.2318   -3.7180   -5.3054 C   0  0  0  0  0  0  0  0  0  0  0  0
    3.3205   -4.3523   -4.6950 C   0  0  0  0  0  0  0  0  0  0  0  0
    4.1194   -5.2929   -5.4353 C   0  0  0  0  0  0  0  0  0  0  0  0
    4.7647   -6.0502   -6.0294 N   0  0  0  0  0  0  0  0  0  0  0  0
    3.6375   -4.0624   -3.3636 C   0  0  0  0  0  0  0  0  0  0  0  0
    2.8710   -3.1403   -2.6435 C   0  0  0  0  0  0  0  0  0  0  0  0
    3.1846   -2.8854   -1.3478 F   0  0  0  0  0  0  0  0  0  0  0  0
   -3.5172   -0.9833    1.7997 H   0  0  0  0  0  0  0  0  0  0  0  0
   -3.5248    0.7324    1.1931 H   0  0  0  0  0  0  0  0  0  0  0  0
   -4.9019    0.1059    2.1487 H   0  0  0  0  0  0  0  0  0  0  0  0
   -3.6080   -0.0882    4.1466 H   0  0  0  0  0  0  0  0  0  0  0  0
   -2.4023    2.9590    2.2129 H   0  0  0  0  0  0  0  0  0  0  0  0
   -2.3346    3.5621    3.9034 H   0  0  0  0  0  0  0  0  0  0  0  0
   -0.7227    2.0556    4.5496 H   0  0  0  0  0  0  0  0  0  0  0  0
   -0.2785    2.0741    2.8209 H   0  0  0  0  0  0  0  0  0  0  0  0
   -1.5997    0.0975    5.6061 H   0  0  0  0  0  0  0  0  0  0  0  0
   -0.0828   -0.4427    4.7909 H   0  0  0  0  0  0  0  0  0  0  0  0
   -1.5798   -1.4362    4.6644 H   0  0  0  0  0  0  0  0  0  0  0  0
   -0.7133   -1.3307    2.3931 H   0  0  0  0  0  0  0  0  0  0  0  0
   -0.0913   -1.7045    0.2326 H   0  0  0  0  0  0  0  0  0  0  0  0
   -1.1538    0.2960   -1.8543 H   0  0  0  0  0  0  0  0  0  0  0  0
   -2.0815   -1.0691   -1.1378 H   0  0  0  0  0  0  0  0  0  0  0  0
   -0.6895   -2.7216   -2.1332 H   0  0  0  0  0  0  0  0  0  0  0  0
   -0.9143   -1.4934   -3.4293 H   0  0  0  0  0  0  0  0  0  0  0  0
    1.3380    0.5526   -2.5238 H   0  0  0  0  0  0  0  0  0  0  0  0
    2.7592   -0.4062   -2.0258 H   0  0  0  0  0  0  0  0  0  0  0  0
    1.3654    0.9187   -0.2205 H   0  0  0  0  0  0  0  0  0  0  0  0
    1.9789   -0.7122    0.1727 H   0  0  0  0  0  0  0  0  0  0  0  0
    0.6335   -2.3033   -5.0803 H   0  0  0  0  0  0  0  0  0  0  0  0
    1.9809   -3.9294   -6.3362 H   0  0  0  0  0  0  0  0  0  0  0  0
    4.4795   -4.5455   -2.8831 H   0  0  0  0  0  0  0  0  0  0  0  0
  1  2  1  0
  2  3  1  0
  3  4  1  0
  4  5  1  0
  5  6  1  0
  6  7  1  0
  6  8  1  0
  8  9  1  0
  9 10  2  0
  9 11  1  0
 11 12  1  0
 12 13  1  0
 13 14  1  0
 14 15  1  0
 15 16  1  0
 14 17  1  0
 17 18  2  0
 18 19  1  0
 19 20  2  0
 20 21  1  0
 21 22  3  0
 20 23  1  0
 23 24  2  0
 24 25  1  0
  6  2  1  0
 16 11  1  0
 17 24  1  0
  1 26  1  0
  1 27  1  0
  1 28  1  0
  2 29  1  0
  4 30  1  0
  4 31  1  0
  5 32  1  0
  5 33  1  0
  7 34  1  0
  7 35  1  0
  7 36  1  0
  8 37  1  0
 11 38  1  0
 12 39  1  0
 12 40  1  0
 13 41  1  0
 13 42  1  0
 15 43  1  0
 15 44  1  0
 16 45  1  0
 16 46  1  0
 18 47  1  0
 19 48  1  0
 23 49  1  0
M  END
$$$$
