
     RDKit          3D

 47 50  0  0  0  0  0  0  0  0999 V2000
   -2.8365    1.5856   -3.1869 C   0  0  0  0  0  0  0  0  0  0  0  0
   -1.5523    1.5453   -2.5771 O   0  0  0  0  0  0  0  0  0  0  0  0
   -1.3711    1.2282   -1.2280 C   0  0  0  0  0  0  0  0  0  0  0  0
   -2.3643    0.9852   -0.4881 O   0  0  0  0  0  0  0  0  0  0  0  0
    0.0225    1.1461   -0.6687 C   0  0  0  0  0  0  0  0  0  0  0  0
    0.1779    2.1322    0.5136 C   0  0  0  0  0  0  0  0  0  0  0  0
    1.3984    1.8050    1.3247 C   0  0  0  0  0  0  0  0  0  0  0  0
    2.2212    2.8135    1.8487 C   0  0  0  0  0  0  0  0  0  0  0  0
    3.3144    2.4762    2.6526 C   0  0  0  0  0  0  0  0  0  0  0  0
    3.5794    1.1360    2.9501 C   0  0  0  0  0  0  0  0  0  0  0  0
    2.7529    0.1283    2.4434 C   0  0  0  0  0  0  0  0  0  0  0  0
    1.6638    0.4605    1.6232 C   0  0  0  0  0  0  0  0  0  0  0  0
    0.7383   -0.5919    1.0805 C   0  0  0  0  0  0  0  0  0  0  0  0
    0.3472   -0.2539   -0.3020 N   0  0  0  0  0  0  0  0  0  0  0  0
    0.3691   -1.2632   -1.3393 C   0  0  0  0  0  0  0  0  0  0  0  0
    0.4626   -0.9150   -2.5484 O   0  0  0  0  0  0  0  0  0  0  0  0
    0.3248   -2.7325   -1.0033 C   0  0  0  0  0  0  0  0  0  0  0  0
   -0.3560   -3.6387   -2.0334 C   0  0  0  0  0  0  0  0  0  0  0  0
   -1.0529   -3.3409   -0.7111 C   0  0  0  0  0  0  0  0  0  0  0  0
   -1.0976   -4.4933    0.2950 C   0  0  0  0  0  0  0  0  0  0  0  0
   -1.7719   -3.9923    1.5766 C   0  0  0  0  0  0  0  0  0  0  0  0
   -3.0471   -3.4389    1.2967 O   0  0  0  0  0  0  0  0  0  0  0  0
   -2.9104   -2.2434    0.5466 C   0  0  0  0  0  0  0  0  0  0  0  0
   -2.3496   -2.5290   -0.8503 C   0  0  0  0  0  0  0  0  0  0  0  0
   -3.4707    2.3487   -2.6879 H   0  0  0  0  0  0  0  0  0  0  0  0
   -3.3216    0.5889   -3.1156 H   0  0  0  0  0  0  0  0  0  0  0  0
   -2.7236    1.8551   -4.2569 H   0  0  0  0  0  0  0  0  0  0  0  0
    0.7384    1.4717   -1.4563 H   0  0  0  0  0  0  0  0  0  0  0  0
    0.2331    3.1708    0.1187 H   0  0  0  0  0  0  0  0  0  0  0  0
   -0.7012    2.0718    1.1920 H   0  0  0  0  0  0  0  0  0  0  0  0
    2.0147    3.8558    1.6400 H   0  0  0  0  0  0  0  0  0  0  0  0
    3.9513    3.2545    3.0529 H   0  0  0  0  0  0  0  0  0  0  0  0
    4.4218    0.8787    3.5790 H   0  0  0  0  0  0  0  0  0  0  0  0
    2.9615   -0.9053    2.6897 H   0  0  0  0  0  0  0  0  0  0  0  0
   -0.1678   -0.6341    1.7190 H   0  0  0  0  0  0  0  0  0  0  0  0
    1.2389   -1.5802    1.1306 H   0  0  0  0  0  0  0  0  0  0  0  0
    1.2163   -3.2030   -0.5368 H   0  0  0  0  0  0  0  0  0  0  0  0
    0.0948   -4.6512   -2.1110 H   0  0  0  0  0  0  0  0  0  0  0  0
   -0.7886   -3.1287   -2.9213 H   0  0  0  0  0  0  0  0  0  0  0  0
   -0.0825   -4.8789    0.5333 H   0  0  0  0  0  0  0  0  0  0  0  0
   -1.6981   -5.3257   -0.1317 H   0  0  0  0  0  0  0  0  0  0  0  0
   -1.9066   -4.8535    2.2642 H   0  0  0  0  0  0  0  0  0  0  0  0
   -1.1178   -3.2582    2.1013 H   0  0  0  0  0  0  0  0  0  0  0  0
   -2.2773   -1.5019    1.0810 H   0  0  0  0  0  0  0  0  0  0  0  0
   -3.9145   -1.7830    0.4348 H   0  0  0  0  0  0  0  0  0  0  0  0
   -3.0902   -3.1383   -1.4124 H   0  0  0  0  0  0  0  0  0  0  0  0
   -2.2076   -1.5802   -1.4057 H   0  0  0  0  0  0  0  0  0  0  0  0
  1  2  1  0
  2  3  1  0
  3  4  2  0
  3  5  1  0
  5  6  1  0
  6  7  1  0
  7  8  2  0
  8  9  1  0
  9 10  2  0
 10 11  1  0
 11 12  2  0
 12 13  1  0
 13 14  1  0
 14 15  1  0
 15 16  2  0
 15 17  1  0
 17 18  1  0
 18 19  1  0
 19 20  1  0
 20 21  1  0
 21 22  1  0
 22 23  1  0
 23 24  1  0
 14  5  1  0
 12  7  1  0
 19 17  1  0
 24 19  1  0
  1 25  1  0
  1 26  1  0
  1 27  1  0
  5 28  1  0
  6 29  1  0
  6 30  1  0
  8 31  1  0
  9 32  1  0
 10 33  1  0
 11 34  1  0
 13 35  1  0
 13 36  1  0
 17 37  1  0
 18 38  1  0
 18 39  1  0
 20 40  1  0
 20 41  1  0
 21 42  1  0
 21 43  1  0
 23 44  1  0
 23 45  1  0
 24 46  1  0
 24 47  1  0
M  END
$$$$
