
     RDKit          3D

 43 45  0  0  0  0  0  0  0  0999 V2000
    3.4822    1.4748   -4.8515 C   0  0  0  0  0  0  0  0  0  0  0  0
    3.2199    0.6618   -3.6622 N   0  0  0  0  0  0  0  0  0  0  0  0
    4.3138   -0.0209   -2.9592 C   0  0  0  0  0  0  0  0  0  0  0  0
    4.1280    0.0848   -1.4412 C   0  0  0  0  0  0  0  0  0  0  0  0
    2.7489   -0.3708   -1.0283 C   0  0  0  0  0  0  0  0  0  0  0  0
    2.5488   -0.9516    0.2317 C   0  0  0  0  0  0  0  0  0  0  0  0
    1.2657   -1.3164    0.6450 C   0  0  0  0  0  0  0  0  0  0  0  0
    0.1573   -1.0788   -0.1791 C   0  0  0  0  0  0  0  0  0  0  0  0
    0.3541   -0.5019   -1.4462 C   0  0  0  0  0  0  0  0  0  0  0  0
    1.6433   -0.1376   -1.8704 C   0  0  0  0  0  0  0  0  0  0  0  0
    1.8715    0.4763   -3.1958 C   0  0  0  0  0  0  0  0  0  0  0  0
    0.8962    0.8487   -3.9044 O   0  0  0  0  0  0  0  0  0  0  0  0
   -1.1489   -1.4810    0.2665 N   0  0  0  0  0  0  0  0  0  0  0  0
   -2.3569   -0.7622   -0.0288 C   0  0  0  0  0  0  0  0  0  0  0  0
   -2.3119    0.3845   -0.5509 O   0  0  0  0  0  0  0  0  0  0  0  0
   -3.6836   -1.3424    0.3569 C   0  0  0  0  0  0  0  0  0  0  0  0
   -3.8484   -1.3000    1.8143 N   0  0  0  0  0  0  0  0  0  0  0  0
   -3.8292   -2.5442    2.5937 C   0  0  0  0  0  0  0  0  0  0  0  0
   -3.2073   -2.3084    3.9724 C   0  0  0  0  0  0  0  0  0  0  0  0
   -3.9801   -1.2206    4.7243 C   0  0  0  0  0  0  0  0  0  0  0  0
   -4.0851   -0.0038    3.9220 N   0  0  0  0  0  0  0  0  0  0  0  0
   -4.0949   -0.0525    2.4909 C   0  0  0  0  0  0  0  0  0  0  0  0
   -4.2930    1.0049    1.8338 O   0  0  0  0  0  0  0  0  0  0  0  0
    3.1403    2.5162   -4.6741 H   0  0  0  0  0  0  0  0  0  0  0  0
    2.9368    1.0533   -5.7221 H   0  0  0  0  0  0  0  0  0  0  0  0
    4.5646    1.4963   -5.0981 H   0  0  0  0  0  0  0  0  0  0  0  0
    5.2991    0.4146   -3.2328 H   0  0  0  0  0  0  0  0  0  0  0  0
    4.3179   -1.0930   -3.2532 H   0  0  0  0  0  0  0  0  0  0  0  0
    4.2651    1.1416   -1.1260 H   0  0  0  0  0  0  0  0  0  0  0  0
    4.9074   -0.5315   -0.9421 H   0  0  0  0  0  0  0  0  0  0  0  0
    3.3870   -1.1205    0.8965 H   0  0  0  0  0  0  0  0  0  0  0  0
    1.1311   -1.7701    1.6190 H   0  0  0  0  0  0  0  0  0  0  0  0
   -0.4872   -0.3635   -2.1124 H   0  0  0  0  0  0  0  0  0  0  0  0
   -1.2132   -2.2888    0.9265 H   0  0  0  0  0  0  0  0  0  0  0  0
   -4.5113   -0.7845   -0.1331 H   0  0  0  0  0  0  0  0  0  0  0  0
   -3.7355   -2.3884   -0.0154 H   0  0  0  0  0  0  0  0  0  0  0  0
   -4.8701   -2.9159    2.7125 H   0  0  0  0  0  0  0  0  0  0  0  0
   -3.2414   -3.3271    2.0673 H   0  0  0  0  0  0  0  0  0  0  0  0
   -2.1466   -1.9965    3.8516 H   0  0  0  0  0  0  0  0  0  0  0  0
   -3.2302   -3.2523    4.5583 H   0  0  0  0  0  0  0  0  0  0  0  0
   -5.0013   -1.5853    4.9674 H   0  0  0  0  0  0  0  0  0  0  0  0
   -3.4563   -0.9905    5.6767 H   0  0  0  0  0  0  0  0  0  0  0  0
   -4.2897    0.9006    4.4034 H   0  0  0  0  0  0  0  0  0  0  0  0
  1  2  1  0
  2  3  1  0
  3  4  1  0
  4  5  1  0
  5  6  2  0
  6  7  1  0
  7  8  2  0
  8  9  1  0
  9 10  2  0
 10 11  1  0
 11 12  2  0
  8 13  1  0
 13 14  1  0
 14 15  2  0
 14 16  1  0
 16 17  1  0
 17 18  1  0
 18 19  1  0
 19 20  1  0
 20 21  1  0
 21 22  1  0
 22 23  2  0
 11  2  1  0
  5 10  1  0
 22 17  1  0
  1 24  1  0
  1 25  1  0
  1 26  1  0
  3 27  1  0
  3 28  1  0
  4 29  1  0
  4 30  1  0
  6 31  1  0
  7 32  1  0
  9 33  1  0
 13 34  1  0
 16 35  1  0
 16 36  1  0
 18 37  1  0
 18 38  1  0
 19 39  1  0
 19 40  1  0
 20 41  1  0
 20 42  1  0
 21 43  1  0
M  END
$$$$
