
     RDKit          3D

 36 39  0  0  0  0  0  0  0  0999 V2000
    2.6625   -0.0253    2.3407 O   0  0  0  0  0  0  0  0  0  0  0  0
    1.4116   -0.0397    2.1770 C   0  0  0  0  0  0  0  0  0  0  0  0
    0.6108   -0.6709    3.1325 C   0  0  0  0  0  0  0  0  0  0  0  0
   -0.7703   -0.7086    2.9593 C   0  0  0  0  0  0  0  0  0  0  0  0
   -1.3507   -0.1001    1.8413 C   0  0  0  0  0  0  0  0  0  0  0  0
   -0.5179    0.5465    0.9177 C   0  0  0  0  0  0  0  0  0  0  0  0
    0.8423    0.5507    1.0756 N   0  0  0  0  0  0  0  0  0  0  0  0
    1.6861    1.1572    0.0308 C   0  0  0  0  0  0  0  0  0  0  0  0
    2.4047    0.0908   -0.7509 C   0  0  0  0  0  0  0  0  0  0  0  0
    3.7366   -0.1018   -0.6764 N   0  0  0  0  0  0  0  0  0  0  0  0
    3.9100   -1.2229   -1.4105 C   0  0  0  0  0  0  0  0  0  0  0  0
    2.7506   -1.7066   -1.8973 N   0  0  0  0  0  0  0  0  0  0  0  0
    1.8137   -0.8719   -1.4876 N   0  0  0  0  0  0  0  0  0  0  0  0
    0.4180   -1.0486   -1.7555 C   0  0  0  0  0  0  0  0  0  0  0  0
   -0.3103   -0.0525   -2.4240 C   0  0  0  0  0  0  0  0  0  0  0  0
   -1.6805   -0.2174   -2.6504 C   0  0  0  0  0  0  0  0  0  0  0  0
   -2.3268   -1.3792   -2.2180 C   0  0  0  0  0  0  0  0  0  0  0  0
   -1.6014   -2.3826   -1.5689 C   0  0  0  0  0  0  0  0  0  0  0  0
   -0.2304   -2.2225   -1.3452 C   0  0  0  0  0  0  0  0  0  0  0  0
   -2.8083   -0.1550    1.6179 C   0  0  0  0  0  0  0  0  0  0  0  0
   -3.6864   -0.7526    2.4460 N   0  0  0  0  0  0  0  0  0  0  0  0
   -4.8803   -0.5963    1.8961 N   0  0  0  0  0  0  0  0  0  0  0  0
   -4.6897    0.0897    0.7535 C   0  0  0  0  0  0  0  0  0  0  0  0
   -3.4196    0.3631    0.5790 O   0  0  0  0  0  0  0  0  0  0  0  0
    1.0576   -1.1408    4.0002 H   0  0  0  0  0  0  0  0  0  0  0  0
   -1.3815   -1.2147    3.6960 H   0  0  0  0  0  0  0  0  0  0  0  0
   -0.9651    1.0306    0.0583 H   0  0  0  0  0  0  0  0  0  0  0  0
    2.4270    1.8416    0.4990 H   0  0  0  0  0  0  0  0  0  0  0  0
    1.0868    1.7812   -0.6662 H   0  0  0  0  0  0  0  0  0  0  0  0
    4.8716   -1.6897   -1.5754 H   0  0  0  0  0  0  0  0  0  0  0  0
    0.1825    0.8494   -2.7633 H   0  0  0  0  0  0  0  0  0  0  0  0
   -2.2419    0.5568   -3.1571 H   0  0  0  0  0  0  0  0  0  0  0  0
   -3.3887   -1.5025   -2.3872 H   0  0  0  0  0  0  0  0  0  0  0  0
   -2.1022   -3.2823   -1.2358 H   0  0  0  0  0  0  0  0  0  0  0  0
    0.3227   -2.9986   -0.8314 H   0  0  0  0  0  0  0  0  0  0  0  0
   -5.4798    0.3753    0.0725 H   0  0  0  0  0  0  0  0  0  0  0  0
  1  2  2  0
  2  3  1  0
  3  4  2  0
  4  5  1  0
  5  6  2  0
  6  7  1  0
  7  8  1  0
  8  9  1  0
  9 10  2  0
 10 11  1  0
 11 12  2  0
 12 13  1  0
 13 14  1  0
 14 15  2  0
 15 16  1  0
 16 17  2  0
 17 18  1  0
 18 19  2  0
  5 20  1  0
 20 21  2  0
 21 22  1  0
 22 23  2  0
 23 24  1  0
  7  2  1  0
 13  9  1  0
 14 19  1  0
 24 20  1  0
  3 25  1  0
  4 26  1  0
  6 27  1  0
  8 28  1  0
  8 29  1  0
 11 30  1  0
 15 31  1  0
 16 32  1  0
 17 33  1  0
 18 34  1  0
 19 35  1  0
 23 36  1  0
M  END
$$$$
