
     RDKit          3D

 38 40  0  0  0  0  0  0  0  0999 V2000
   -2.8547   -2.0263    1.0627 O   0  0  0  0  0  0  0  0  0  0  0  0
   -1.7219   -2.4279    0.6771 C   0  0  0  0  0  0  0  0  0  0  0  0
   -0.8619   -3.1087    1.6076 N   0  0  0  0  0  0  0  0  0  0  0  0
   -0.9145   -2.8380    3.0451 C   0  0  0  0  0  0  0  0  0  0  0  0
    0.0757   -1.7330    3.4323 C   0  0  0  0  0  0  0  0  0  0  0  0
   -0.1693   -0.4763    2.6520 C   0  0  0  0  0  0  0  0  0  0  0  0
   -1.2407    0.3779    2.9006 C   0  0  0  0  0  0  0  0  0  0  0  0
   -1.2438    1.5464    1.6960 S   0  0  0  0  0  0  0  0  0  0  0  0
    0.1110    0.9258    0.9098 C   0  0  0  0  0  0  0  0  0  0  0  0
    0.5690   -0.1711    1.5504 N   0  0  0  0  0  0  0  0  0  0  0  0
    0.7021    1.4426   -0.3458 C   0  0  0  0  0  0  0  0  0  0  0  0
    0.1291    2.5324   -1.0243 C   0  0  0  0  0  0  0  0  0  0  0  0
    0.6843    2.9968   -2.2220 C   0  0  0  0  0  0  0  0  0  0  0  0
    1.8193    2.3796   -2.7512 C   0  0  0  0  0  0  0  0  0  0  0  0
    2.4015    1.2975   -2.0838 C   0  0  0  0  0  0  0  0  0  0  0  0
    1.8454    0.8322   -0.8891 C   0  0  0  0  0  0  0  0  0  0  0  0
   -1.2940   -2.1613   -0.7200 C   0  0  0  0  0  0  0  0  0  0  0  0
    0.0659   -2.2128   -1.0916 C   0  0  0  0  0  0  0  0  0  0  0  0
    0.4548   -1.9094   -2.3999 C   0  0  0  0  0  0  0  0  0  0  0  0
   -0.5006   -1.5424   -3.3489 C   0  0  0  0  0  0  0  0  0  0  0  0
   -0.1140   -1.2382   -4.6122 F   0  0  0  0  0  0  0  0  0  0  0  0
   -1.8514   -1.4840   -2.9926 C   0  0  0  0  0  0  0  0  0  0  0  0
   -2.7837   -1.1179   -3.9112 F   0  0  0  0  0  0  0  0  0  0  0  0
   -2.2469   -1.7902   -1.6869 C   0  0  0  0  0  0  0  0  0  0  0  0
   -0.0677   -3.6874    1.2543 H   0  0  0  0  0  0  0  0  0  0  0  0
   -0.6484   -3.7645    3.5952 H   0  0  0  0  0  0  0  0  0  0  0  0
   -1.9418   -2.5532    3.3566 H   0  0  0  0  0  0  0  0  0  0  0  0
    1.1130   -2.0874    3.2469 H   0  0  0  0  0  0  0  0  0  0  0  0
   -0.0203   -1.5179    4.5180 H   0  0  0  0  0  0  0  0  0  0  0  0
   -1.9624    0.2814    3.7007 H   0  0  0  0  0  0  0  0  0  0  0  0
   -0.7501    3.0239   -0.6379 H   0  0  0  0  0  0  0  0  0  0  0  0
    0.2362    3.8349   -2.7388 H   0  0  0  0  0  0  0  0  0  0  0  0
    2.2501    2.7387   -3.6767 H   0  0  0  0  0  0  0  0  0  0  0  0
    3.2839    0.8167   -2.4933 H   0  0  0  0  0  0  0  0  0  0  0  0
    2.3061   -0.0113   -0.3959 H   0  0  0  0  0  0  0  0  0  0  0  0
    0.8356   -2.4439   -0.3719 H   0  0  0  0  0  0  0  0  0  0  0  0
    1.4997   -1.9375   -2.6726 H   0  0  0  0  0  0  0  0  0  0  0  0
   -3.2972   -1.7347   -1.4315 H   0  0  0  0  0  0  0  0  0  0  0  0
  1  2  2  0
  2  3  1  0
  3  4  1  0
  4  5  1  0
  5  6  1  0
  6  7  2  0
  7  8  1  0
  8  9  1  0
  9 10  2  0
  9 11  1  0
 11 12  2  0
 12 13  1  0
 13 14  2  0
 14 15  1  0
 15 16  2  0
  2 17  1  0
 17 18  2  0
 18 19  1  0
 19 20  2  0
 20 21  1  0
 20 22  1  0
 22 23  1  0
 22 24  2  0
 10  6  1  0
 11 16  1  0
 24 17  1  0
  3 25  1  0
  4 26  1  0
  4 27  1  0
  5 28  1  0
  5 29  1  0
  7 30  1  0
 12 31  1  0
 13 32  1  0
 14 33  1  0
 15 34  1  0
 16 35  1  0
 18 36  1  0
 19 37  1  0
 24 38  1  0
M  END
$$$$
