
     RDKit          3D

 42 46  0  0  0  0  0  0  0  0999 V2000
   -4.0709    4.3848   -4.9685 C   0  0  0  0  0  0  0  0  0  0  0  0
   -4.9738    3.6426   -4.1999 C   0  0  0  0  0  0  0  0  0  0  0  0
   -4.5061    2.7784   -3.2046 C   0  0  0  0  0  0  0  0  0  0  0  0
   -3.1310    2.6543   -2.9753 C   0  0  0  0  0  0  0  0  0  0  0  0
   -2.6721    1.8151   -2.0084 N   0  0  0  0  0  0  0  0  0  0  0  0
   -1.3428    1.6659   -1.7542 C   0  0  0  0  0  0  0  0  0  0  0  0
   -0.4057    2.3929   -2.5035 C   0  0  0  0  0  0  0  0  0  0  0  0
   -0.8466    3.2627   -3.5033 C   0  0  0  0  0  0  0  0  0  0  0  0
   -2.2174    3.4029   -3.7503 C   0  0  0  0  0  0  0  0  0  0  0  0
   -2.6948    4.2676   -4.7467 C   0  0  0  0  0  0  0  0  0  0  0  0
   -0.9065    0.7435   -0.6960 C   0  0  0  0  0  0  0  0  0  0  0  0
   -1.7482    0.0134    0.0631 N   0  0  0  0  0  0  0  0  0  0  0  0
   -0.9913   -0.6864    0.8940 N   0  0  0  0  0  0  0  0  0  0  0  0
    0.2806   -0.3523    0.6051 C   0  0  0  0  0  0  0  0  0  0  0  0
    1.4289   -0.8848    1.2726 N   0  0  0  0  0  0  0  0  0  0  0  0
    1.3261   -1.9300    2.2946 C   0  0  0  0  0  0  0  0  0  0  0  0
    1.3852   -3.3079    1.6090 C   0  0  0  0  0  0  0  0  0  0  0  0
    1.5178   -4.4187    2.6504 C   0  0  0  0  0  0  0  0  0  0  0  0
    2.6719   -4.1972    3.4576 O   0  0  0  0  0  0  0  0  0  0  0  0
    3.0418   -2.9168    3.8834 C   0  0  0  0  0  0  0  0  0  0  0  0
    4.0413   -2.7764    4.8522 C   0  0  0  0  0  0  0  0  0  0  0  0
    4.4022   -1.5067    5.3096 C   0  0  0  0  0  0  0  0  0  0  0  0
    3.7619   -0.3728    4.8043 C   0  0  0  0  0  0  0  0  0  0  0  0
    2.7696   -0.5034    3.8283 C   0  0  0  0  0  0  0  0  0  0  0  0
    2.4222   -1.7738    3.3340 C   0  0  0  0  0  0  0  0  0  0  0  0
    0.3449    0.5229   -0.3673 O   0  0  0  0  0  0  0  0  0  0  0  0
   -4.4385    5.0521   -5.7374 H   0  0  0  0  0  0  0  0  0  0  0  0
   -6.0375    3.7374   -4.3759 H   0  0  0  0  0  0  0  0  0  0  0  0
   -5.2124    2.2077   -2.6144 H   0  0  0  0  0  0  0  0  0  0  0  0
    0.6561    2.2890   -2.3174 H   0  0  0  0  0  0  0  0  0  0  0  0
   -0.1201    3.8226   -4.0800 H   0  0  0  0  0  0  0  0  0  0  0  0
   -2.0077    4.8489   -5.3500 H   0  0  0  0  0  0  0  0  0  0  0  0
    2.3726   -0.6188    0.9098 H   0  0  0  0  0  0  0  0  0  0  0  0
    0.3548   -1.8392    2.8296 H   0  0  0  0  0  0  0  0  0  0  0  0
    0.4633   -3.4692    1.0095 H   0  0  0  0  0  0  0  0  0  0  0  0
    2.2601   -3.3511    0.9230 H   0  0  0  0  0  0  0  0  0  0  0  0
    1.6070   -5.4034    2.1456 H   0  0  0  0  0  0  0  0  0  0  0  0
    0.6146   -4.4346    3.2981 H   0  0  0  0  0  0  0  0  0  0  0  0
    4.5287   -3.6531    5.2593 H   0  0  0  0  0  0  0  0  0  0  0  0
    5.1711   -1.4022    6.0642 H   0  0  0  0  0  0  0  0  0  0  0  0
    4.0326    0.6088    5.1713 H   0  0  0  0  0  0  0  0  0  0  0  0
    2.2759    0.3858    3.4568 H   0  0  0  0  0  0  0  0  0  0  0  0
  1  2  2  0
  2  3  1  0
  3  4  2  0
  4  5  1  0
  5  6  2  0
  6  7  1  0
  7  8  2  0
  8  9  1  0
  9 10  2  0
  6 11  1  0
 11 12  2  0
 12 13  1  0
 13 14  2  0
 14 15  1  0
 15 16  1  0
 16 17  1  0
 17 18  1  0
 18 19  1  0
 19 20  1  0
 20 21  2  0
 21 22  1  0
 22 23  2  0
 23 24  1  0
 24 25  2  0
 14 26  1  0
  1 10  1  0
  4  9  1  0
 26 11  1  0
 25 16  1  0
 20 25  1  0
  1 27  1  0
  2 28  1  0
  3 29  1  0
  7 30  1  0
  8 31  1  0
 10 32  1  0
 15 33  1  0
 16 34  1  0
 17 35  1  0
 17 36  1  0
 18 37  1  0
 18 38  1  0
 21 39  1  0
 22 40  1  0
 23 41  1  0
 24 42  1  0
M  END
$$$$
