
     RDKit          3D

 56 57  0  0  0  0  0  0  0  0999 V2000
   -4.2572    1.6518   -0.0515 C   0  0  0  0  0  0  0  0  0  0  0  0
   -3.6138    2.7120    0.6483 O   0  0  0  0  0  0  0  0  0  0  0  0
   -2.2623    3.0561    0.4961 C   0  0  0  0  0  0  0  0  0  0  0  0
   -1.7462    4.0883    1.2876 C   0  0  0  0  0  0  0  0  0  0  0  0
   -0.4015    4.4645    1.1935 C   0  0  0  0  0  0  0  0  0  0  0  0
    0.4388    3.7934    0.2860 C   0  0  0  0  0  0  0  0  0  0  0  0
   -0.0664    2.7647   -0.5171 C   0  0  0  0  0  0  0  0  0  0  0  0
   -1.4157    2.3993   -0.4154 C   0  0  0  0  0  0  0  0  0  0  0  0
    1.0129    1.9157   -1.6203 S   0  0  0  0  0  0  0  0  0  0  0  0
    0.2829    0.8199   -2.3467 O   0  0  0  0  0  0  0  0  0  0  0  0
    1.5414    2.8904   -2.6345 O   0  0  0  0  0  0  0  0  0  0  0  0
    2.3401    1.2284   -0.7376 N   0  0  0  0  0  0  0  0  0  0  0  0
    2.2286    0.0135    0.0262 C   0  0  0  0  0  0  0  0  0  0  0  0
    0.9934   -0.3850    0.5671 C   0  0  0  0  0  0  0  0  0  0  0  0
    0.8765   -1.5804    1.2837 C   0  0  0  0  0  0  0  0  0  0  0  0
    2.0051   -2.3793    1.4828 C   0  0  0  0  0  0  0  0  0  0  0  0
    3.2439   -1.9851    0.9749 C   0  0  0  0  0  0  0  0  0  0  0  0
    3.3688   -0.7869    0.2439 C   0  0  0  0  0  0  0  0  0  0  0  0
    4.6008   -0.3715   -0.2877 O   0  0  0  0  0  0  0  0  0  0  0  0
    5.8251   -1.0844   -0.1446 C   0  0  0  0  0  0  0  0  0  0  0  0
   -0.6823   -2.0861    1.9301 S   0  0  0  0  0  0  0  0  0  0  0  0
   -0.4735   -2.4850    3.3638 O   0  0  0  0  0  0  0  0  0  0  0  0
   -1.6522   -0.9371    1.9163 O   0  0  0  0  0  0  0  0  0  0  0  0
   -1.3556   -3.4545    1.0742 N   0  0  0  0  0  0  0  0  0  0  0  0
   -1.5799   -3.3104   -0.3868 C   0  0  0  0  0  0  0  0  0  0  0  0
   -2.4667   -4.4945   -0.8194 C   0  0  0  0  0  0  0  0  0  0  0  0
   -0.2572   -3.3871   -1.1836 C   0  0  0  0  0  0  0  0  0  0  0  0
   -2.3317   -2.0082   -0.7379 C   0  0  0  0  0  0  0  0  0  0  0  0
    0.0586    5.5023    2.0178 O   0  0  0  0  0  0  0  0  0  0  0  0
    1.3995    5.9810    2.0354 C   0  0  0  0  0  0  0  0  0  0  0  0
   -4.2282    1.8424   -1.1450 H   0  0  0  0  0  0  0  0  0  0  0  0
   -5.3168    1.5948    0.2710 H   0  0  0  0  0  0  0  0  0  0  0  0
   -3.7622    0.6857    0.1816 H   0  0  0  0  0  0  0  0  0  0  0  0
   -2.3953    4.5988    1.9883 H   0  0  0  0  0  0  0  0  0  0  0  0
    1.4835    4.0601    0.2002 H   0  0  0  0  0  0  0  0  0  0  0  0
   -1.7955    1.5986   -1.0343 H   0  0  0  0  0  0  0  0  0  0  0  0
    3.2792    1.6580   -0.8914 H   0  0  0  0  0  0  0  0  0  0  0  0
    0.1176    0.2270    0.4321 H   0  0  0  0  0  0  0  0  0  0  0  0
    1.9258   -3.3086    2.0329 H   0  0  0  0  0  0  0  0  0  0  0  0
    4.0986   -2.6235    1.1513 H   0  0  0  0  0  0  0  0  0  0  0  0
    5.7378   -2.0900   -0.6074 H   0  0  0  0  0  0  0  0  0  0  0  0
    6.0890   -1.1783    0.9299 H   0  0  0  0  0  0  0  0  0  0  0  0
    6.6321   -0.5252   -0.6607 H   0  0  0  0  0  0  0  0  0  0  0  0
   -0.7329   -4.2752    1.2579 H   0  0  0  0  0  0  0  0  0  0  0  0
   -3.4269   -4.4824   -0.2595 H   0  0  0  0  0  0  0  0  0  0  0  0
   -1.9571   -5.4598   -0.6095 H   0  0  0  0  0  0  0  0  0  0  0  0
   -2.6955   -4.4521   -1.9065 H   0  0  0  0  0  0  0  0  0  0  0  0
    0.3672   -4.2374   -0.8357 H   0  0  0  0  0  0  0  0  0  0  0  0
    0.3294   -2.4546   -1.0988 H   0  0  0  0  0  0  0  0  0  0  0  0
   -0.4624   -3.5292   -2.2666 H   0  0  0  0  0  0  0  0  0  0  0  0
   -3.2339   -1.8970   -0.0991 H   0  0  0  0  0  0  0  0  0  0  0  0
   -1.6828   -1.1183   -0.6105 H   0  0  0  0  0  0  0  0  0  0  0  0
   -2.6560   -2.0167   -1.8009 H   0  0  0  0  0  0  0  0  0  0  0  0
    1.6770    6.3772    1.0358 H   0  0  0  0  0  0  0  0  0  0  0  0
    1.4820    6.8011    2.7777 H   0  0  0  0  0  0  0  0  0  0  0  0
    2.0925    5.1644    2.3291 H   0  0  0  0  0  0  0  0  0  0  0  0
  1  2  1  0
  2  3  1  0
  3  4  2  0
  4  5  1  0
  5  6  2  0
  6  7  1  0
  7  8  2  0
  7  9  1  0
  9 10  2  0
  9 11  2  0
  9 12  1  0
 12 13  1  0
 13 14  2  0
 14 15  1  0
 15 16  2  0
 16 17  1  0
 17 18  2  0
 18 19  1  0
 19 20  1  0
 15 21  1  0
 21 22  2  0
 21 23  2  0
 21 24  1  0
 24 25  1  0
 25 26  1  0
 25 27  1  0
 25 28  1  0
  5 29  1  0
 29 30  1  0
  8  3  1  0
 13 18  1  0
  1 31  1  0
  1 32  1  0
  1 33  1  0
  4 34  1  0
  6 35  1  0
  8 36  1  0
 12 37  1  0
 14 38  1  0
 16 39  1  0
 17 40  1  0
 20 41  1  0
 20 42  1  0
 20 43  1  0
 24 44  1  0
 26 45  1  0
 26 46  1  0
 26 47  1  0
 27 48  1  0
 27 49  1  0
 27 50  1  0
 28 51  1  0
 28 52  1  0
 28 53  1  0
 30 54  1  0
 30 55  1  0
 30 56  1  0
M  END
$$$$
