
     RDKit          3D

 44 47  0  0  0  0  0  0  0  0999 V2000
   -3.4479   -0.7532    2.9720 C   0  0  0  0  0  0  0  0  0  0  0  0
   -3.0077   -0.9920    1.5219 C   0  0  0  0  0  0  0  0  0  0  0  0
   -1.5090   -1.3899    1.4464 C   0  0  0  0  0  0  0  0  0  0  0  0
   -0.6146   -0.1780    1.1585 C   0  0  0  0  0  0  0  0  0  0  0  0
   -0.9482    0.4782   -0.2257 C   0  0  0  0  0  0  0  0  0  0  0  0
   -0.5358    1.9683   -0.2019 C   0  0  0  0  0  0  0  0  0  0  0  0
    0.9257    1.9861   -0.6279 C   0  0  0  0  0  0  0  0  0  0  0  0
    1.1175    0.7636   -1.3897 N   0  0  0  0  0  0  0  0  0  0  0  0
   -0.0418   -0.1142   -1.3253 C   0  0  0  0  0  0  0  0  0  0  0  0
    2.3410    0.4724   -2.0919 C   0  0  0  0  0  0  0  0  0  0  0  0
    3.3396    1.2247   -1.9267 O   0  0  0  0  0  0  0  0  0  0  0  0
    2.4646   -0.6776   -3.0105 C   0  0  0  0  0  0  0  0  0  0  0  0
    3.6261   -1.0717   -3.6518 C   0  0  0  0  0  0  0  0  0  0  0  0
    3.2867   -2.1740   -4.4076 C   0  0  0  0  0  0  0  0  0  0  0  0
    1.9403   -2.3804   -4.1807 C   0  0  0  0  0  0  0  0  0  0  0  0
    1.4786   -1.4766   -3.3488 O   0  0  0  0  0  0  0  0  0  0  0  0
    1.1206   -3.4438   -4.7675 C   0  0  0  0  0  0  0  0  0  0  0  0
    1.5807   -4.3779   -5.6230 N   0  0  0  0  0  0  0  0  0  0  0  0
    0.5269   -5.1288   -5.8995 N   0  0  0  0  0  0  0  0  0  0  0  0
   -0.5205   -4.6660   -5.2388 N   0  0  0  0  0  0  0  0  0  0  0  0
   -0.1912   -3.6094   -4.5165 N   0  0  0  0  0  0  0  0  0  0  0  0
   -2.4542    0.2958   -0.5986 C   0  0  0  0  0  0  0  0  0  0  0  0
   -3.3426    0.2437    0.6480 C   0  0  0  0  0  0  0  0  0  0  0  0
   -4.5247   -0.4816    3.0047 H   0  0  0  0  0  0  0  0  0  0  0  0
   -2.8557    0.0670    3.4313 H   0  0  0  0  0  0  0  0  0  0  0  0
   -3.3070   -1.6772    3.5724 H   0  0  0  0  0  0  0  0  0  0  0  0
   -3.5994   -1.8528    1.1373 H   0  0  0  0  0  0  0  0  0  0  0  0
   -1.3679   -2.1360    0.6336 H   0  0  0  0  0  0  0  0  0  0  0  0
   -1.1778   -1.8799    2.3882 H   0  0  0  0  0  0  0  0  0  0  0  0
   -0.7649    0.5473    1.9879 H   0  0  0  0  0  0  0  0  0  0  0  0
    0.4534   -0.4856    1.2074 H   0  0  0  0  0  0  0  0  0  0  0  0
   -0.6778    2.4538    0.7878 H   0  0  0  0  0  0  0  0  0  0  0  0
   -1.1170    2.5513   -0.9499 H   0  0  0  0  0  0  0  0  0  0  0  0
    1.1408    2.8772   -1.2571 H   0  0  0  0  0  0  0  0  0  0  0  0
    1.5911    1.9791    0.2626 H   0  0  0  0  0  0  0  0  0  0  0  0
    0.2645   -1.1554   -1.0834 H   0  0  0  0  0  0  0  0  0  0  0  0
   -0.5479   -0.1046   -2.3159 H   0  0  0  0  0  0  0  0  0  0  0  0
    4.6038   -0.6136   -3.5791 H   0  0  0  0  0  0  0  0  0  0  0  0
    3.9425   -2.7528   -5.0447 H   0  0  0  0  0  0  0  0  0  0  0  0
   -1.4778   -5.0791   -5.2818 H   0  0  0  0  0  0  0  0  0  0  0  0
   -2.8086    1.1050   -1.2726 H   0  0  0  0  0  0  0  0  0  0  0  0
   -2.5969   -0.6580   -1.1548 H   0  0  0  0  0  0  0  0  0  0  0  0
   -4.4100    0.1998    0.3400 H   0  0  0  0  0  0  0  0  0  0  0  0
   -3.1989    1.1860    1.2227 H   0  0  0  0  0  0  0  0  0  0  0  0
  1  2  1  0
  2  3  1  0
  3  4  1  0
  4  5  1  0
  5  6  1  0
  6  7  1  0
  7  8  1  0
  8  9  1  0
  8 10  1  0
 10 11  2  0
 10 12  1  0
 12 13  2  0
 13 14  1  0
 14 15  2  0
 15 16  1  0
 15 17  1  0
 17 18  1  0
 18 19  2  0
 19 20  1  0
 20 21  1  0
  5 22  1  0
 22 23  1  0
 23  2  1  0
  9  5  1  0
 16 12  1  0
 17 21  2  0
  1 24  1  0
  1 25  1  0
  1 26  1  0
  2 27  1  0
  3 28  1  0
  3 29  1  0
  4 30  1  0
  4 31  1  0
  6 32  1  0
  6 33  1  0
  7 34  1  0
  7 35  1  0
  9 36  1  0
  9 37  1  0
 13 38  1  0
 14 39  1  0
 20 40  1  0
 22 41  1  0
 22 42  1  0
 23 43  1  0
 23 44  1  0
M  END
$$$$
