
     RDKit          3D

 42 44  0  0  0  0  0  0  0  0999 V2000
    1.2558   -1.7504    2.1780 C   0  0  0  0  0  0  0  0  0  0  0  0
    0.6504   -2.2808    0.8820 C   0  0  0  0  0  0  0  0  0  0  0  0
    0.9806   -1.3956   -0.2466 N   0  0  0  0  0  0  0  0  0  0  0  0
   -0.0997   -0.6740   -0.9339 C   0  0  0  0  0  0  0  0  0  0  0  0
   -0.6620    0.3996   -0.0534 C   0  0  0  0  0  0  0  0  0  0  0  0
   -1.7222    0.2794    0.8180 C   0  0  0  0  0  0  0  0  0  0  0  0
   -1.8296    1.4682    1.4342 N   0  0  0  0  0  0  0  0  0  0  0  0
   -2.8473    1.8601    2.4011 C   0  0  0  0  0  0  0  0  0  0  0  0
   -4.0474    2.3880    1.6864 C   0  0  0  0  0  0  0  0  0  0  0  0
   -4.1940    3.6823    1.3299 N   0  0  0  0  0  0  0  0  0  0  0  0
   -5.3400    3.8862    0.6269 C   0  0  0  0  0  0  0  0  0  0  0  0
   -6.1067    2.7484    0.4047 C   0  0  0  0  0  0  0  0  0  0  0  0
   -5.3162    1.4448    1.1144 S   0  0  0  0  0  0  0  0  0  0  0  0
   -0.8949    2.2764    0.9599 N   0  0  0  0  0  0  0  0  0  0  0  0
   -0.1586    1.6459    0.0559 N   0  0  0  0  0  0  0  0  0  0  0  0
    2.3502   -1.2390   -0.6802 C   0  0  0  0  0  0  0  0  0  0  0  0
    3.1799   -2.3608   -0.8561 C   0  0  0  0  0  0  0  0  0  0  0  0
    4.5081   -2.2026   -1.2586 C   0  0  0  0  0  0  0  0  0  0  0  0
    5.0236   -0.9270   -1.4952 C   0  0  0  0  0  0  0  0  0  0  0  0
    4.2070    0.2025   -1.3434 C   0  0  0  0  0  0  0  0  0  0  0  0
    2.8770    0.0419   -0.9243 C   0  0  0  0  0  0  0  0  0  0  0  0
    4.7699    1.5801   -1.5610 C   0  0  0  0  0  0  0  0  0  0  0  0
    5.2009    2.1214   -0.3427 O   0  0  0  0  0  0  0  0  0  0  0  0
    2.3643   -1.7453    2.1132 H   0  0  0  0  0  0  0  0  0  0  0  0
    0.8962   -0.7177    2.3724 H   0  0  0  0  0  0  0  0  0  0  0  0
    0.9526   -2.4010    3.0251 H   0  0  0  0  0  0  0  0  0  0  0  0
    1.0147   -3.3105    0.6898 H   0  0  0  0  0  0  0  0  0  0  0  0
   -0.4511   -2.3528    1.0127 H   0  0  0  0  0  0  0  0  0  0  0  0
    0.2675   -0.2179   -1.8789 H   0  0  0  0  0  0  0  0  0  0  0  0
   -0.9041   -1.3882   -1.2141 H   0  0  0  0  0  0  0  0  0  0  0  0
   -2.3548   -0.5824    0.9871 H   0  0  0  0  0  0  0  0  0  0  0  0
   -2.4407    2.6430    3.0768 H   0  0  0  0  0  0  0  0  0  0  0  0
   -3.1354    0.9859    3.0240 H   0  0  0  0  0  0  0  0  0  0  0  0
   -5.6225    4.8649    0.2636 H   0  0  0  0  0  0  0  0  0  0  0  0
   -7.0418    2.7097   -0.1374 H   0  0  0  0  0  0  0  0  0  0  0  0
    2.8009   -3.3609   -0.6989 H   0  0  0  0  0  0  0  0  0  0  0  0
    5.1397   -3.0720   -1.3884 H   0  0  0  0  0  0  0  0  0  0  0  0
    6.0580   -0.8202   -1.7980 H   0  0  0  0  0  0  0  0  0  0  0  0
    2.2596    0.9168   -0.7753 H   0  0  0  0  0  0  0  0  0  0  0  0
    3.9871    2.2421   -1.9889 H   0  0  0  0  0  0  0  0  0  0  0  0
    5.6085    1.5553   -2.2940 H   0  0  0  0  0  0  0  0  0  0  0  0
    6.0611    1.6765   -0.1234 H   0  0  0  0  0  0  0  0  0  0  0  0
  1  2  1  0
  2  3  1  0
  3  4  1  0
  4  5  1  0
  5  6  2  0
  6  7  1  0
  7  8  1  0
  8  9  1  0
  9 10  2  0
 10 11  1  0
 11 12  2  0
 12 13  1  0
  7 14  1  0
 14 15  2  0
  3 16  1  0
 16 17  2  0
 17 18  1  0
 18 19  2  0
 19 20  1  0
 20 21  2  0
 20 22  1  0
 22 23  1  0
 15  5  1  0
 13  9  1  0
 16 21  1  0
  1 24  1  0
  1 25  1  0
  1 26  1  0
  2 27  1  0
  2 28  1  0
  4 29  1  0
  4 30  1  0
  6 31  1  0
  8 32  1  0
  8 33  1  0
 11 34  1  0
 12 35  1  0
 17 36  1  0
 18 37  1  0
 19 38  1  0
 21 39  1  0
 22 40  1  0
 22 41  1  0
 23 42  1  0
M  END
$$$$
