
     RDKit          3D

 49 51  0  0  0  0  0  0  0  0999 V2000
   -3.6524    4.1938   -0.6624 C   0  0  0  0  0  0  0  0  0  0  0  0
   -3.0133    4.0091    0.6488 N   0  0  0  0  0  0  0  0  0  0  0  0
   -2.6938    2.5962    0.9055 C   0  0  0  0  0  0  0  0  0  0  0  0
   -1.8873    4.9387    0.9040 C   0  0  0  0  0  0  0  0  0  0  0  0
   -0.7881    4.9834   -0.1843 C   0  0  0  0  0  0  0  0  0  0  0  0
    0.0126    3.7108   -0.2881 C   0  0  0  0  0  0  0  0  0  0  0  0
   -0.0171    2.9466   -1.4662 C   0  0  0  0  0  0  0  0  0  0  0  0
    0.7113    1.7574   -1.5547 C   0  0  0  0  0  0  0  0  0  0  0  0
    1.4910    1.3217   -0.4729 C   0  0  0  0  0  0  0  0  0  0  0  0
    1.5368    2.0939    0.6979 C   0  0  0  0  0  0  0  0  0  0  0  0
    0.8089    3.2835    0.7869 C   0  0  0  0  0  0  0  0  0  0  0  0
    2.2360    0.0178   -0.5606 C   0  0  0  0  0  0  0  0  0  0  0  0
    1.2972   -1.1015   -0.5444 N   0  0  0  0  0  0  0  0  0  0  0  0
    0.5748   -1.4843    0.6343 C   0  0  0  0  0  0  0  0  0  0  0  0
    0.7788   -0.8910    1.7281 O   0  0  0  0  0  0  0  0  0  0  0  0
   -0.3928   -2.6262    0.5848 C   0  0  0  0  0  0  0  0  0  0  0  0
    0.3384   -3.9285    0.7537 C   0  0  0  0  0  0  0  0  0  0  0  0
    0.6076   -4.4268    2.0503 C   0  0  0  0  0  0  0  0  0  0  0  0
    1.3195   -5.6236    2.2215 C   0  0  0  0  0  0  0  0  0  0  0  0
    1.7578   -6.2963    1.0852 C   0  0  0  0  0  0  0  0  0  0  0  0
    2.6259   -7.7288    0.9913 S   0  0  0  0  0  0  0  0  0  0  0  0
    2.6999   -7.7549   -0.6985 C   0  0  0  0  0  0  0  0  0  0  0  0
    2.0414   -6.6339   -1.2010 C   0  0  0  0  0  0  0  0  0  0  0  0
    1.5146   -5.8200   -0.1923 C   0  0  0  0  0  0  0  0  0  0  0  0
    0.8066   -4.6304   -0.3781 C   0  0  0  0  0  0  0  0  0  0  0  0
   -3.8461    5.2716   -0.8511 H   0  0  0  0  0  0  0  0  0  0  0  0
   -3.0239    3.7836   -1.4818 H   0  0  0  0  0  0  0  0  0  0  0  0
   -4.6322    3.6708   -0.6757 H   0  0  0  0  0  0  0  0  0  0  0  0
   -2.1437    2.1370    0.0592 H   0  0  0  0  0  0  0  0  0  0  0  0
   -3.6368    2.0278    1.0492 H   0  0  0  0  0  0  0  0  0  0  0  0
   -2.0966    2.4853    1.8359 H   0  0  0  0  0  0  0  0  0  0  0  0
   -1.4308    4.7208    1.8939 H   0  0  0  0  0  0  0  0  0  0  0  0
   -2.3051    5.9645    0.9986 H   0  0  0  0  0  0  0  0  0  0  0  0
   -1.2251    5.2659   -1.1652 H   0  0  0  0  0  0  0  0  0  0  0  0
   -0.0844    5.8039    0.0749 H   0  0  0  0  0  0  0  0  0  0  0  0
   -0.6162    3.2614   -2.3114 H   0  0  0  0  0  0  0  0  0  0  0  0
    0.6621    1.1706   -2.4638 H   0  0  0  0  0  0  0  0  0  0  0  0
    2.1311    1.7736    1.5446 H   0  0  0  0  0  0  0  0  0  0  0  0
    0.8599    3.8670    1.6974 H   0  0  0  0  0  0  0  0  0  0  0  0
    2.9659   -0.0927    0.2709 H   0  0  0  0  0  0  0  0  0  0  0  0
    2.8158   -0.0023   -1.5089 H   0  0  0  0  0  0  0  0  0  0  0  0
    1.1525   -1.6422   -1.4269 H   0  0  0  0  0  0  0  0  0  0  0  0
   -1.1549   -2.5095    1.3862 H   0  0  0  0  0  0  0  0  0  0  0  0
   -0.9383   -2.6100   -0.3836 H   0  0  0  0  0  0  0  0  0  0  0  0
    0.2675   -3.8852    2.9242 H   0  0  0  0  0  0  0  0  0  0  0  0
    1.5254   -6.0097    3.2113 H   0  0  0  0  0  0  0  0  0  0  0  0
    3.1812   -8.5175   -1.2955 H   0  0  0  0  0  0  0  0  0  0  0  0
    1.9504   -6.4205   -2.2582 H   0  0  0  0  0  0  0  0  0  0  0  0
    0.6238   -4.2551   -1.3779 H   0  0  0  0  0  0  0  0  0  0  0  0
  1  2  1  0
  2  3  1  0
  2  4  1  0
  4  5  1  0
  5  6  1  0
  6  7  2  0
  7  8  1  0
  8  9  2  0
  9 10  1  0
 10 11  2  0
  9 12  1  0
 12 13  1  0
 13 14  1  0
 14 15  2  0
 14 16  1  0
 16 17  1  0
 17 18  2  0
 18 19  1  0
 19 20  2  0
 20 21  1  0
 21 22  1  0
 22 23  2  0
 23 24  1  0
 24 25  2  0
  6 11  1  0
 17 25  1  0
 20 24  1  0
  1 26  1  0
  1 27  1  0
  1 28  1  0
  3 29  1  0
  3 30  1  0
  3 31  1  0
  4 32  1  0
  4 33  1  0
  5 34  1  0
  5 35  1  0
  7 36  1  0
  8 37  1  0
 10 38  1  0
 11 39  1  0
 12 40  1  0
 12 41  1  0
 13 42  1  0
 16 43  1  0
 16 44  1  0
 18 45  1  0
 19 46  1  0
 22 47  1  0
 23 48  1  0
 25 49  1  0
M  END
$$$$
