
     RDKit          3D

 43 45  0  0  0  0  0  0  0  0999 V2000
   -0.4290   -3.6208    0.5027 C   0  0  0  0  0  0  0  0  0  0  0  0
    1.0147   -2.7073    1.1302 S   0  0  0  0  0  0  0  0  0  0  0  0
    1.9144   -2.8242   -0.4259 C   0  0  0  0  0  0  0  0  0  0  0  0
    2.6801   -3.9748   -0.6591 C   0  0  0  0  0  0  0  0  0  0  0  0
    3.3258   -4.1676   -1.8878 C   0  0  0  0  0  0  0  0  0  0  0  0
    4.1674   -5.3883   -2.1158 C   0  0  0  0  0  0  0  0  0  0  0  0
    3.2247   -3.1844   -2.8798 C   0  0  0  0  0  0  0  0  0  0  0  0
    2.4738   -2.0292   -2.6532 C   0  0  0  0  0  0  0  0  0  0  0  0
    1.8247   -1.8255   -1.4240 C   0  0  0  0  0  0  0  0  0  0  0  0
    1.0797   -0.5640   -1.2156 C   0  0  0  0  0  0  0  0  0  0  0  0
    0.3762   -0.1011   -2.1548 O   0  0  0  0  0  0  0  0  0  0  0  0
    1.2304    0.1796    0.0034 N   0  0  0  0  0  0  0  0  0  0  0  0
    0.4850    1.3696    0.2917 C   0  0  0  0  0  0  0  0  0  0  0  0
    1.0247    2.4837    0.8056 N   0  0  0  0  0  0  0  0  0  0  0  0
    0.0562    3.3775    0.9246 N   0  0  0  0  0  0  0  0  0  0  0  0
   -1.1014    2.8718    0.5180 N   0  0  0  0  0  0  0  0  0  0  0  0
   -0.8659    1.6072    0.1111 C   0  0  0  0  0  0  0  0  0  0  0  0
   -1.9185    0.6484   -0.2814 C   0  0  0  0  0  0  0  0  0  0  0  0
   -1.7227   -0.5820   -0.0931 O   0  0  0  0  0  0  0  0  0  0  0  0
   -3.1678    1.0834   -0.8496 N   0  0  0  0  0  0  0  0  0  0  0  0
   -3.4436    2.4366   -1.3041 C   0  0  0  0  0  0  0  0  0  0  0  0
   -4.7350    2.3449   -2.1057 C   0  0  0  0  0  0  0  0  0  0  0  0
   -5.3790    1.0211   -1.7049 C   0  0  0  0  0  0  0  0  0  0  0  0
   -4.2489    0.1620   -1.1549 C   0  0  0  0  0  0  0  0  0  0  0  0
   -0.8244   -3.1363   -0.4141 H   0  0  0  0  0  0  0  0  0  0  0  0
   -0.1426   -4.6685    0.2742 H   0  0  0  0  0  0  0  0  0  0  0  0
   -1.2213   -3.6246    1.2789 H   0  0  0  0  0  0  0  0  0  0  0  0
    2.7549   -4.7312    0.1132 H   0  0  0  0  0  0  0  0  0  0  0  0
    4.1881   -5.6556   -3.1938 H   0  0  0  0  0  0  0  0  0  0  0  0
    3.7585   -6.2560   -1.5555 H   0  0  0  0  0  0  0  0  0  0  0  0
    5.2042   -5.1911   -1.7718 H   0  0  0  0  0  0  0  0  0  0  0  0
    3.7318   -3.3091   -3.8287 H   0  0  0  0  0  0  0  0  0  0  0  0
    2.4196   -1.2792   -3.4331 H   0  0  0  0  0  0  0  0  0  0  0  0
    2.0658   -0.0193    0.5984 H   0  0  0  0  0  0  0  0  0  0  0  0
    2.0244    2.6457    1.0586 H   0  0  0  0  0  0  0  0  0  0  0  0
   -3.5853    3.1041   -0.4271 H   0  0  0  0  0  0  0  0  0  0  0  0
   -2.6151    2.8112   -1.9441 H   0  0  0  0  0  0  0  0  0  0  0  0
   -4.4988    2.3270   -3.1926 H   0  0  0  0  0  0  0  0  0  0  0  0
   -5.4078    3.2037   -1.8922 H   0  0  0  0  0  0  0  0  0  0  0  0
   -6.1319    1.2026   -0.9065 H   0  0  0  0  0  0  0  0  0  0  0  0
   -5.8753    0.5331   -2.5717 H   0  0  0  0  0  0  0  0  0  0  0  0
   -3.9106   -0.5703   -1.9201 H   0  0  0  0  0  0  0  0  0  0  0  0
   -4.5736   -0.3728   -0.2360 H   0  0  0  0  0  0  0  0  0  0  0  0
  1  2  1  0
  2  3  1  0
  3  4  2  0
  4  5  1  0
  5  6  1  0
  5  7  2  0
  7  8  1  0
  8  9  2  0
  9 10  1  0
 10 11  2  0
 10 12  1  0
 12 13  1  0
 13 14  1  0
 14 15  1  0
 15 16  2  0
 16 17  1  0
 17 18  1  0
 18 19  2  0
 18 20  1  0
 20 21  1  0
 21 22  1  0
 22 23  1  0
 23 24  1  0
  3  9  1  0
 13 17  2  0
 24 20  1  0
  1 25  1  0
  1 26  1  0
  1 27  1  0
  4 28  1  0
  6 29  1  0
  6 30  1  0
  6 31  1  0
  7 32  1  0
  8 33  1  0
 12 34  1  0
 14 35  1  0
 21 36  1  0
 21 37  1  0
 22 38  1  0
 22 39  1  0
 23 40  1  0
 23 41  1  0
 24 42  1  0
 24 43  1  0
M  END
$$$$
