
     RDKit          3D

 43 45  0  0  0  0  0  0  0  0999 V2000
   -6.0276   -0.2261   -3.2439 C   0  0  0  0  0  0  0  0  0  0  0  0
   -4.9033   -0.7047   -2.4370 N   0  0  0  0  0  0  0  0  0  0  0  0
   -4.7091   -2.1392   -2.1896 C   0  0  0  0  0  0  0  0  0  0  0  0
   -4.2870   -2.3828   -0.7361 C   0  0  0  0  0  0  0  0  0  0  0  0
   -3.1028   -1.5244   -0.3604 C   0  0  0  0  0  0  0  0  0  0  0  0
   -2.2015   -1.9634    0.6194 C   0  0  0  0  0  0  0  0  0  0  0  0
   -1.1420   -1.1469    1.0205 C   0  0  0  0  0  0  0  0  0  0  0  0
   -0.9649    0.1216    0.4515 C   0  0  0  0  0  0  0  0  0  0  0  0
   -1.8910    0.5826   -0.5008 C   0  0  0  0  0  0  0  0  0  0  0  0
   -2.9564   -0.2360   -0.9125 C   0  0  0  0  0  0  0  0  0  0  0  0
   -3.9377    0.2265   -1.9172 C   0  0  0  0  0  0  0  0  0  0  0  0
   -3.9388    1.4272   -2.3049 O   0  0  0  0  0  0  0  0  0  0  0  0
    0.1217    0.9484    0.9015 N   0  0  0  0  0  0  0  0  0  0  0  0
    0.8458    1.8561    0.0558 C   0  0  0  0  0  0  0  0  0  0  0  0
    0.6884    1.8338   -1.1948 O   0  0  0  0  0  0  0  0  0  0  0  0
    1.8673    2.7775    0.6498 C   0  0  0  0  0  0  0  0  0  0  0  0
    3.1666    2.1016    0.7427 N   0  0  0  0  0  0  0  0  0  0  0  0
    3.4855    1.3152    1.9423 C   0  0  0  0  0  0  0  0  0  0  0  0
    4.9997    1.1797    2.1272 C   0  0  0  0  0  0  0  0  0  0  0  0
    5.6348    0.5623    0.8796 C   0  0  0  0  0  0  0  0  0  0  0  0
    5.2825    1.3289   -0.3119 N   0  0  0  0  0  0  0  0  0  0  0  0
    4.0306    2.0166   -0.4081 C   0  0  0  0  0  0  0  0  0  0  0  0
    3.7059    2.5645   -1.4962 O   0  0  0  0  0  0  0  0  0  0  0  0
   -5.6462    0.3132   -4.1366 H   0  0  0  0  0  0  0  0  0  0  0  0
   -6.6642   -1.0664   -3.5926 H   0  0  0  0  0  0  0  0  0  0  0  0
   -6.6537    0.4632   -2.6393 H   0  0  0  0  0  0  0  0  0  0  0  0
   -3.9150   -2.5182   -2.8691 H   0  0  0  0  0  0  0  0  0  0  0  0
   -5.6397   -2.7109   -2.3953 H   0  0  0  0  0  0  0  0  0  0  0  0
   -4.0410   -3.4600   -0.6112 H   0  0  0  0  0  0  0  0  0  0  0  0
   -5.1349   -2.1383   -0.0606 H   0  0  0  0  0  0  0  0  0  0  0  0
   -2.3221   -2.9374    1.0774 H   0  0  0  0  0  0  0  0  0  0  0  0
   -0.4526   -1.5051    1.7749 H   0  0  0  0  0  0  0  0  0  0  0  0
   -1.7979    1.5826   -0.9033 H   0  0  0  0  0  0  0  0  0  0  0  0
    0.4656    0.8152    1.8794 H   0  0  0  0  0  0  0  0  0  0  0  0
    1.5276    3.1042    1.6563 H   0  0  0  0  0  0  0  0  0  0  0  0
    1.9558    3.6987    0.0336 H   0  0  0  0  0  0  0  0  0  0  0  0
    3.0304    0.3053    1.8488 H   0  0  0  0  0  0  0  0  0  0  0  0
    3.0620    1.8027    2.8470 H   0  0  0  0  0  0  0  0  0  0  0  0
    5.4421    2.1830    2.3122 H   0  0  0  0  0  0  0  0  0  0  0  0
    5.2111    0.5363    3.0083 H   0  0  0  0  0  0  0  0  0  0  0  0
    5.2833   -0.4849    0.7569 H   0  0  0  0  0  0  0  0  0  0  0  0
    6.7395    0.5488    0.9974 H   0  0  0  0  0  0  0  0  0  0  0  0
    5.8970    1.2638   -1.1544 H   0  0  0  0  0  0  0  0  0  0  0  0
  1  2  1  0
  2  3  1  0
  3  4  1  0
  4  5  1  0
  5  6  2  0
  6  7  1  0
  7  8  2  0
  8  9  1  0
  9 10  2  0
 10 11  1  0
 11 12  2  0
  8 13  1  0
 13 14  1  0
 14 15  2  0
 14 16  1  0
 16 17  1  0
 17 18  1  0
 18 19  1  0
 19 20  1  0
 20 21  1  0
 21 22  1  0
 22 23  2  0
 11  2  1  0
  5 10  1  0
 22 17  1  0
  1 24  1  0
  1 25  1  0
  1 26  1  0
  3 27  1  0
  3 28  1  0
  4 29  1  0
  4 30  1  0
  6 31  1  0
  7 32  1  0
  9 33  1  0
 13 34  1  0
 16 35  1  0
 16 36  1  0
 18 37  1  0
 18 38  1  0
 19 39  1  0
 19 40  1  0
 20 41  1  0
 20 42  1  0
 21 43  1  0
M  END
$$$$
