
     RDKit          3D

 45 47  0  0  0  0  0  0  0  0999 V2000
   -2.9188   -3.8931    0.3088 C   0  0  0  0  0  0  0  0  0  0  0  0
   -3.4013   -2.6746    0.9756 N   0  0  0  0  0  0  0  0  0  0  0  0
   -3.3622   -1.5019    0.0844 C   0  0  0  0  0  0  0  0  0  0  0  0
   -2.7161   -0.3473    0.8479 C   0  0  0  0  0  0  0  0  0  0  0  0
   -2.6546   -0.8184    2.3035 C   0  0  0  0  0  0  0  0  0  0  0  0
   -3.9626   -0.4267    3.0313 C   0  0  0  0  0  0  0  0  0  0  0  0
   -1.4534   -0.2297    3.0972 C   0  0  0  0  0  0  0  0  0  0  0  0
   -0.1551   -0.5230    2.4820 N   0  0  0  0  0  0  0  0  0  0  0  0
    0.5748    0.4307    1.6968 C   0  0  0  0  0  0  0  0  0  0  0  0
    0.1161    1.5932    1.5251 O   0  0  0  0  0  0  0  0  0  0  0  0
    1.8435    0.0625    1.1355 N   0  0  0  0  0  0  0  0  0  0  0  0
    2.5278    0.8216    0.1241 C   0  0  0  0  0  0  0  0  0  0  0  0
    1.8233    1.5114   -0.8781 C   0  0  0  0  0  0  0  0  0  0  0  0
    2.5123    2.2221   -1.8653 C   0  0  0  0  0  0  0  0  0  0  0  0
    3.9161    2.2450   -1.8766 C   0  0  0  0  0  0  0  0  0  0  0  0
    4.6194    1.5368   -0.8883 C   0  0  0  0  0  0  0  0  0  0  0  0
    3.9295    0.8255    0.0977 C   0  0  0  0  0  0  0  0  0  0  0  0
    4.6382    2.9982   -2.9221 C   0  0  0  0  0  0  0  0  0  0  0  0
    5.9848    3.0667   -3.0053 N   0  0  0  0  0  0  0  0  0  0  0  0
    6.1924    3.8420   -4.0861 C   0  0  0  0  0  0  0  0  0  0  0  0
    4.9786    4.2133   -4.6157 C   0  0  0  0  0  0  0  0  0  0  0  0
    4.0406    3.6776   -3.8763 O   0  0  0  0  0  0  0  0  0  0  0  0
   -2.5904   -2.3418    2.1540 C   0  0  0  0  0  0  0  0  0  0  0  0
   -3.5782   -4.1356   -0.5518 H   0  0  0  0  0  0  0  0  0  0  0  0
   -1.8754   -3.7691   -0.0584 H   0  0  0  0  0  0  0  0  0  0  0  0
   -2.9552   -4.7497    1.0155 H   0  0  0  0  0  0  0  0  0  0  0  0
   -4.4045   -1.2307   -0.1885 H   0  0  0  0  0  0  0  0  0  0  0  0
   -2.7993   -1.6923   -0.8587 H   0  0  0  0  0  0  0  0  0  0  0  0
   -3.2932    0.5962    0.7268 H   0  0  0  0  0  0  0  0  0  0  0  0
   -1.7027   -0.1836    0.4288 H   0  0  0  0  0  0  0  0  0  0  0  0
   -3.9652   -0.8230    4.0696 H   0  0  0  0  0  0  0  0  0  0  0  0
   -4.8535   -0.8319    2.5043 H   0  0  0  0  0  0  0  0  0  0  0  0
   -4.0645    0.6788    3.0820 H   0  0  0  0  0  0  0  0  0  0  0  0
   -1.4547   -0.6559    4.1243 H   0  0  0  0  0  0  0  0  0  0  0  0
   -1.5821    0.8686    3.2128 H   0  0  0  0  0  0  0  0  0  0  0  0
    0.2778   -1.4578    2.6539 H   0  0  0  0  0  0  0  0  0  0  0  0
    2.3280   -0.7717    1.5374 H   0  0  0  0  0  0  0  0  0  0  0  0
    0.7425    1.4815   -0.9161 H   0  0  0  0  0  0  0  0  0  0  0  0
    1.9465    2.7466   -2.6253 H   0  0  0  0  0  0  0  0  0  0  0  0
    5.7022    1.5302   -0.8776 H   0  0  0  0  0  0  0  0  0  0  0  0
    4.4887    0.2836    0.8502 H   0  0  0  0  0  0  0  0  0  0  0  0
    7.1679    4.1183   -4.4630 H   0  0  0  0  0  0  0  0  0  0  0  0
    4.8095    4.8346   -5.4849 H   0  0  0  0  0  0  0  0  0  0  0  0
   -2.9927   -2.8615    3.0509 H   0  0  0  0  0  0  0  0  0  0  0  0
   -1.5387   -2.6749    2.0133 H   0  0  0  0  0  0  0  0  0  0  0  0
  1  2  1  0
  2  3  1  0
  3  4  1  0
  4  5  1  0
  5  6  1  0
  5  7  1  0
  7  8  1  0
  8  9  1  0
  9 10  2  0
  9 11  1  0
 11 12  1  0
 12 13  2  0
 13 14  1  0
 14 15  2  0
 15 16  1  0
 16 17  2  0
 15 18  1  0
 18 19  2  0
 19 20  1  0
 20 21  2  0
 21 22  1  0
  5 23  1  0
 23  2  1  0
 12 17  1  0
 22 18  1  0
  1 24  1  0
  1 25  1  0
  1 26  1  0
  3 27  1  0
  3 28  1  0
  4 29  1  0
  4 30  1  0
  6 31  1  0
  6 32  1  0
  6 33  1  0
  7 34  1  0
  7 35  1  0
  8 36  1  0
 11 37  1  0
 13 38  1  0
 14 39  1  0
 16 40  1  0
 17 41  1  0
 20 42  1  0
 21 43  1  0
 23 44  1  0
 23 45  1  0
M  END
$$$$
