
     RDKit          3D

 48 51  0  0  0  0  0  0  0  0999 V2000
   -7.0303   -3.2852    4.7518 C   0  0  0  0  0  0  0  0  0  0  0  0
   -6.8540   -3.6116    3.3784 O   0  0  0  0  0  0  0  0  0  0  0  0
   -5.9607   -2.9289    2.5478 C   0  0  0  0  0  0  0  0  0  0  0  0
   -5.8450   -3.3149    1.1953 C   0  0  0  0  0  0  0  0  0  0  0  0
   -4.9523   -2.6398    0.3470 C   0  0  0  0  0  0  0  0  0  0  0  0
   -4.1998   -1.5954    0.8777 C   0  0  0  0  0  0  0  0  0  0  0  0
   -3.2983   -0.8530    0.1881 N   0  0  0  0  0  0  0  0  0  0  0  0
   -2.7381    0.0851    0.9948 C   0  0  0  0  0  0  0  0  0  0  0  0
   -1.7354    1.0129    0.5609 N   0  0  0  0  0  0  0  0  0  0  0  0
   -1.2872    1.1223   -0.8010 C   0  0  0  0  0  0  0  0  0  0  0  0
   -1.9416    0.5675   -1.7260 O   0  0  0  0  0  0  0  0  0  0  0  0
   -0.1133    1.8908   -1.1282 N   0  0  0  0  0  0  0  0  0  0  0  0
    0.0271    2.4429   -2.4835 C   0  0  0  0  0  0  0  0  0  0  0  0
    1.0840    3.5498   -2.5211 C   0  0  0  0  0  0  0  0  0  0  0  0
    2.4391    3.0601   -1.9866 C   0  0  0  0  0  0  0  0  0  0  0  0
    2.3310    2.0930   -0.7759 C   0  0  0  0  0  0  0  0  0  0  0  0
    0.9344    2.1336   -0.1244 C   0  0  0  0  0  0  0  0  0  0  0  0
    2.6552    0.7184   -1.1886 N   0  0  0  0  0  0  0  0  0  0  0  0
    3.9859    0.2528   -1.4937 C   0  0  0  0  0  0  0  0  0  0  0  0
    5.1102    1.1018   -1.4278 C   0  0  0  0  0  0  0  0  0  0  0  0
    6.3844    0.6120   -1.7321 C   0  0  0  0  0  0  0  0  0  0  0  0
    6.5532   -0.7235   -2.1032 C   0  0  0  0  0  0  0  0  0  0  0  0
    5.4475   -1.5732   -2.1717 C   0  0  0  0  0  0  0  0  0  0  0  0
    4.1715   -1.0889   -1.8691 C   0  0  0  0  0  0  0  0  0  0  0  0
   -3.3290    0.0248    2.5856 S   0  0  0  0  0  0  0  0  0  0  0  0
   -4.3459   -1.2524    2.2063 C   0  0  0  0  0  0  0  0  0  0  0  0
   -5.2038   -1.8976    3.0335 N   0  0  0  0  0  0  0  0  0  0  0  0
   -6.0719   -3.4111    5.2988 H   0  0  0  0  0  0  0  0  0  0  0  0
   -7.7880   -3.9643    5.1936 H   0  0  0  0  0  0  0  0  0  0  0  0
   -7.3849   -2.2373    4.8513 H   0  0  0  0  0  0  0  0  0  0  0  0
   -6.4427   -4.1306    0.8094 H   0  0  0  0  0  0  0  0  0  0  0  0
   -4.8531   -2.9257   -0.6923 H   0  0  0  0  0  0  0  0  0  0  0  0
   -1.3387    1.6606    1.2772 H   0  0  0  0  0  0  0  0  0  0  0  0
   -0.9419    2.8768   -2.8142 H   0  0  0  0  0  0  0  0  0  0  0  0
    0.3071    1.6288   -3.1868 H   0  0  0  0  0  0  0  0  0  0  0  0
    1.2037    3.9170   -3.5634 H   0  0  0  0  0  0  0  0  0  0  0  0
    0.7319    4.4038   -1.9016 H   0  0  0  0  0  0  0  0  0  0  0  0
    3.0376    3.9492   -1.6911 H   0  0  0  0  0  0  0  0  0  0  0  0
    2.9893    2.5725   -2.8210 H   0  0  0  0  0  0  0  0  0  0  0  0
    3.0527    2.4067    0.0100 H   0  0  0  0  0  0  0  0  0  0  0  0
    0.9015    1.3618    0.6757 H   0  0  0  0  0  0  0  0  0  0  0  0
    0.7657    3.1255    0.3484 H   0  0  0  0  0  0  0  0  0  0  0  0
    1.8780    0.0196   -1.2373 H   0  0  0  0  0  0  0  0  0  0  0  0
    5.0161    2.1411   -1.1481 H   0  0  0  0  0  0  0  0  0  0  0  0
    7.2424    1.2699   -1.6806 H   0  0  0  0  0  0  0  0  0  0  0  0
    7.5405   -1.0996   -2.3381 H   0  0  0  0  0  0  0  0  0  0  0  0
    5.5787   -2.6083   -2.4597 H   0  0  0  0  0  0  0  0  0  0  0  0
    3.3249   -1.7615   -1.9279 H   0  0  0  0  0  0  0  0  0  0  0  0
  1  2  1  0
  2  3  1  0
  3  4  2  0
  4  5  1  0
  5  6  2  0
  6  7  1  0
  7  8  2  0
  8  9  1  0
  9 10  1  0
 10 11  2  0
 10 12  1  0
 12 13  1  0
 13 14  1  0
 14 15  1  0
 15 16  1  0
 16 17  1  0
 16 18  1  0
 18 19  1  0
 19 20  2  0
 20 21  1  0
 21 22  2  0
 22 23  1  0
 23 24  2  0
  8 25  1  0
 25 26  1  0
 26 27  2  0
  3 27  1  0
  6 26  1  0
 17 12  1  0
 19 24  1  0
  1 28  1  0
  1 29  1  0
  1 30  1  0
  4 31  1  0
  5 32  1  0
  9 33  1  0
 13 34  1  0
 13 35  1  0
 14 36  1  0
 14 37  1  0
 15 38  1  0
 15 39  1  0
 16 40  1  0
 17 41  1  0
 17 42  1  0
 18 43  1  0
 20 44  1  0
 21 45  1  0
 22 46  1  0
 23 47  1  0
 24 48  1  0
M  END
$$$$
