
     RDKit          3D

 34 35  0  0  0  0  0  0  0  0999 V2000
   -0.0374   -0.5215    5.9566 N   0  0  0  0  0  0  0  0  0  0  0  0
    0.1322   -0.3005    4.5564 C   0  0  0  0  0  0  0  0  0  0  0  0
    0.6191   -1.3191    3.7309 C   0  0  0  0  0  0  0  0  0  0  0  0
    0.7760   -1.0794    2.3647 C   0  0  0  0  0  0  0  0  0  0  0  0
    0.4525    0.1770    1.8250 C   0  0  0  0  0  0  0  0  0  0  0  0
   -0.0428    1.1660    2.6926 C   0  0  0  0  0  0  0  0  0  0  0  0
   -0.1859    0.9077    4.0198 N   0  0  0  0  0  0  0  0  0  0  0  0
    0.5987    0.4519    0.3756 C   0  0  0  0  0  0  0  0  0  0  0  0
    0.0170    1.4513   -0.1297 O   0  0  0  0  0  0  0  0  0  0  0  0
    1.4179   -0.3860   -0.4560 N   0  0  0  0  0  0  0  0  0  0  0  0
    1.2957   -0.4253   -1.8874 C   0  0  0  0  0  0  0  0  0  0  0  0
    2.4594   -0.4238   -2.6705 C   0  0  0  0  0  0  0  0  0  0  0  0
    2.3766   -0.4644   -4.0633 C   0  0  0  0  0  0  0  0  0  0  0  0
    1.1297   -0.5210   -4.6887 C   0  0  0  0  0  0  0  0  0  0  0  0
    1.0294   -0.5696   -6.4395 Cl  0  0  0  0  0  0  0  0  0  0  0  0
   -0.0378   -0.5510   -3.9201 C   0  0  0  0  0  0  0  0  0  0  0  0
    0.0334   -0.5179   -2.5129 C   0  0  0  0  0  0  0  0  0  0  0  0
   -1.1173   -0.5996   -1.7128 O   0  0  0  0  0  0  0  0  0  0  0  0
   -2.4507   -0.6791   -2.2088 C   0  0  0  0  0  0  0  0  0  0  0  0
   -3.4257   -0.7273   -1.0400 C   0  0  0  0  0  0  0  0  0  0  0  0
   -4.7208   -0.8019   -1.5186 F   0  0  0  0  0  0  0  0  0  0  0  0
   -3.1668   -1.8384   -0.2577 F   0  0  0  0  0  0  0  0  0  0  0  0
   -3.2920    0.4136   -0.2693 F   0  0  0  0  0  0  0  0  0  0  0  0
    0.1997   -1.4428    6.3878 H   0  0  0  0  0  0  0  0  0  0  0  0
   -0.4029    0.2414    6.5688 H   0  0  0  0  0  0  0  0  0  0  0  0
    0.8688   -2.2896    4.1408 H   0  0  0  0  0  0  0  0  0  0  0  0
    1.1316   -1.8838    1.7346 H   0  0  0  0  0  0  0  0  0  0  0  0
   -0.3096    2.1461    2.3191 H   0  0  0  0  0  0  0  0  0  0  0  0
    2.2448   -0.8550   -0.0224 H   0  0  0  0  0  0  0  0  0  0  0  0
    3.4325   -0.3755   -2.1978 H   0  0  0  0  0  0  0  0  0  0  0  0
    3.2829   -0.4505   -4.6554 H   0  0  0  0  0  0  0  0  0  0  0  0
   -0.9916   -0.6124   -4.4260 H   0  0  0  0  0  0  0  0  0  0  0  0
   -2.6728    0.2138   -2.8328 H   0  0  0  0  0  0  0  0  0  0  0  0
   -2.5689   -1.5982   -2.8227 H   0  0  0  0  0  0  0  0  0  0  0  0
  1  2  1  0
  2  3  2  0
  3  4  1  0
  4  5  2  0
  5  6  1  0
  6  7  2  0
  5  8  1  0
  8  9  2  0
  8 10  1  0
 10 11  1  0
 11 12  2  0
 12 13  1  0
 13 14  2  0
 14 15  1  0
 14 16  1  0
 16 17  2  0
 17 18  1  0
 18 19  1  0
 19 20  1  0
 20 21  1  0
 20 22  1  0
 20 23  1  0
  2  7  1  0
 11 17  1  0
  1 24  1  0
  1 25  1  0
  3 26  1  0
  4 27  1  0
  6 28  1  0
 10 29  1  0
 12 30  1  0
 13 31  1  0
 16 32  1  0
 19 33  1  0
 19 34  1  0
M  END
$$$$
