
     RDKit          3D

 40 42  0  0  0  0  0  0  0  0999 V2000
    2.8842   -3.3176    4.2220 C   0  0  0  0  0  0  0  0  0  0  0  0
    1.8629   -2.7367    3.4200 O   0  0  0  0  0  0  0  0  0  0  0  0
    1.4761   -1.3971    3.5411 C   0  0  0  0  0  0  0  0  0  0  0  0
    2.0317   -0.6620    4.4023 O   0  0  0  0  0  0  0  0  0  0  0  0
    0.3897   -0.8686    2.6749 C   0  0  0  0  0  0  0  0  0  0  0  0
   -0.5073   -1.7899    2.1036 C   0  0  0  0  0  0  0  0  0  0  0  0
   -1.5623   -1.3608    1.2986 C   0  0  0  0  0  0  0  0  0  0  0  0
   -1.7555    0.0021    1.0541 C   0  0  0  0  0  0  0  0  0  0  0  0
   -0.8571    0.9317    1.5933 C   0  0  0  0  0  0  0  0  0  0  0  0
    0.2222    0.5160    2.3939 C   0  0  0  0  0  0  0  0  0  0  0  0
    1.1735    1.5643    2.9115 C   0  0  0  0  0  0  0  0  0  0  0  0
   -2.8626    0.4599    0.1451 C   0  0  0  0  0  0  0  0  0  0  0  0
   -2.3671    0.5558   -1.2227 N   0  0  0  0  0  0  0  0  0  0  0  0
   -1.7077    1.5936   -1.7638 C   0  0  0  0  0  0  0  0  0  0  0  0
   -1.3288    1.1854   -3.0227 C   0  0  0  0  0  0  0  0  0  0  0  0
   -0.4638    1.9412   -3.9779 C   0  0  0  0  0  0  0  0  0  0  0  0
    0.9380    1.7722   -3.6121 N   0  0  0  0  0  0  0  0  0  0  0  0
    1.6106    2.5002   -2.7015 C   0  0  0  0  0  0  0  0  0  0  0  0
    2.8807    1.9791   -2.5849 C   0  0  0  0  0  0  0  0  0  0  0  0
    2.9051    0.9117   -3.4626 C   0  0  0  0  0  0  0  0  0  0  0  0
    1.7083    0.7991   -4.0712 N   0  0  0  0  0  0  0  0  0  0  0  0
   -1.7370   -0.0873   -3.2017 N   0  0  0  0  0  0  0  0  0  0  0  0
   -2.3660   -0.4439   -2.0905 N   0  0  0  0  0  0  0  0  0  0  0  0
    3.8457   -2.7868    4.0563 H   0  0  0  0  0  0  0  0  0  0  0  0
    3.0082   -4.3830    3.9389 H   0  0  0  0  0  0  0  0  0  0  0  0
    2.6036   -3.2606    5.2950 H   0  0  0  0  0  0  0  0  0  0  0  0
   -0.4014   -2.8518    2.2882 H   0  0  0  0  0  0  0  0  0  0  0  0
   -2.2318   -2.0947    0.8669 H   0  0  0  0  0  0  0  0  0  0  0  0
   -0.9939    1.9844    1.3744 H   0  0  0  0  0  0  0  0  0  0  0  0
    1.0032    2.5487    2.4256 H   0  0  0  0  0  0  0  0  0  0  0  0
    1.0320    1.6932    4.0048 H   0  0  0  0  0  0  0  0  0  0  0  0
    2.2219    1.2695    2.6957 H   0  0  0  0  0  0  0  0  0  0  0  0
   -3.2481    1.4493    0.4760 H   0  0  0  0  0  0  0  0  0  0  0  0
   -3.7164   -0.2514    0.1835 H   0  0  0  0  0  0  0  0  0  0  0  0
   -1.4872    2.5324   -1.2720 H   0  0  0  0  0  0  0  0  0  0  0  0
   -0.7344    3.0193   -3.9569 H   0  0  0  0  0  0  0  0  0  0  0  0
   -0.6308    1.5662   -5.0106 H   0  0  0  0  0  0  0  0  0  0  0  0
    1.2037    3.3388   -2.1511 H   0  0  0  0  0  0  0  0  0  0  0  0
    3.6781    2.3218   -1.9395 H   0  0  0  0  0  0  0  0  0  0  0  0
    3.7427    0.2505   -3.6387 H   0  0  0  0  0  0  0  0  0  0  0  0
  1  2  1  0
  2  3  1  0
  3  4  2  0
  3  5  1  0
  5  6  2  0
  6  7  1  0
  7  8  2  0
  8  9  1  0
  9 10  2  0
 10 11  1  0
  8 12  1  0
 12 13  1  0
 13 14  1  0
 14 15  2  0
 15 16  1  0
 16 17  1  0
 17 18  1  0
 18 19  2  0
 19 20  1  0
 20 21  2  0
 15 22  1  0
 22 23  2  0
  5 10  1  0
 23 13  1  0
 21 17  1  0
  1 24  1  0
  1 25  1  0
  1 26  1  0
  6 27  1  0
  7 28  1  0
  9 29  1  0
 11 30  1  0
 11 31  1  0
 11 32  1  0
 12 33  1  0
 12 34  1  0
 14 35  1  0
 16 36  1  0
 16 37  1  0
 18 38  1  0
 19 39  1  0
 20 40  1  0
M  END
$$$$
