
     RDKit          3D

 52 55  0  0  0  0  0  0  0  0999 V2000
   -3.1740    0.3047    4.2305 C   0  0  0  0  0  0  0  0  0  0  0  0
   -2.4103    1.4254    3.6560 N   0  0  0  0  0  0  0  0  0  0  0  0
   -3.2913    2.4845    3.0967 C   0  0  0  0  0  0  0  0  0  0  0  0
   -3.2705    2.5799    1.5580 C   0  0  0  0  0  0  0  0  0  0  0  0
   -3.1945    1.1926    0.9225 C   0  0  0  0  0  0  0  0  0  0  0  0
   -1.9388    0.4092    1.3994 C   0  0  0  0  0  0  0  0  0  0  0  0
   -1.3578    0.9682    2.7250 C   0  0  0  0  0  0  0  0  0  0  0  0
   -0.8674    0.2780    0.3725 N   0  0  0  0  0  0  0  0  0  0  0  0
   -0.4671    1.5428   -0.2835 C   0  0  0  0  0  0  0  0  0  0  0  0
    0.8079    1.3184   -1.0948 C   0  0  0  0  0  0  0  0  0  0  0  0
    0.6314    0.1918   -2.0185 N   0  0  0  0  0  0  0  0  0  0  0  0
    0.0384   -1.0477   -1.5000 C   0  0  0  0  0  0  0  0  0  0  0  0
   -1.1947   -0.7401   -0.6461 C   0  0  0  0  0  0  0  0  0  0  0  0
    1.3782    0.1886   -3.2506 C   0  0  0  0  0  0  0  0  0  0  0  0
    1.4031    1.2278   -3.9643 O   0  0  0  0  0  0  0  0  0  0  0  0
    2.2158   -0.9907   -3.6598 C   0  0  0  0  0  0  0  0  0  0  0  0
    3.4457   -1.0520   -2.8092 C   0  0  0  0  0  0  0  0  0  0  0  0
    4.6500   -0.4490   -3.1660 C   0  0  0  0  0  0  0  0  0  0  0  0
    5.7317   -0.6763   -1.8986 S   0  0  0  0  0  0  0  0  0  0  0  0
    4.6238   -1.5186   -0.9526 C   0  0  0  0  0  0  0  0  0  0  0  0
    3.4338   -1.6345   -1.5796 N   0  0  0  0  0  0  0  0  0  0  0  0
    4.8816   -2.0442    0.3936 C   0  0  0  0  0  0  0  0  0  0  0  0
    3.9591   -2.7046    1.1966 C   0  0  0  0  0  0  0  0  0  0  0  0
    4.4825   -3.0866    2.4377 C   0  0  0  0  0  0  0  0  0  0  0  0
    5.8132   -2.7293    2.6161 C   0  0  0  0  0  0  0  0  0  0  0  0
    6.3384   -1.9367    1.2287 S   0  0  0  0  0  0  0  0  0  0  0  0
   -2.4869   -0.4663    4.6411 H   0  0  0  0  0  0  0  0  0  0  0  0
   -3.8392   -0.1641    3.4747 H   0  0  0  0  0  0  0  0  0  0  0  0
   -3.7965    0.6707    5.0748 H   0  0  0  0  0  0  0  0  0  0  0  0
   -4.3465    2.3502    3.4278 H   0  0  0  0  0  0  0  0  0  0  0  0
   -2.9647    3.4626    3.5093 H   0  0  0  0  0  0  0  0  0  0  0  0
   -2.3993    3.1877    1.2325 H   0  0  0  0  0  0  0  0  0  0  0  0
   -4.1862    3.1012    1.2055 H   0  0  0  0  0  0  0  0  0  0  0  0
   -4.1094    0.6307    1.2133 H   0  0  0  0  0  0  0  0  0  0  0  0
   -3.2429    1.2817   -0.1807 H   0  0  0  0  0  0  0  0  0  0  0  0
   -2.2932   -0.6147    1.6589 H   0  0  0  0  0  0  0  0  0  0  0  0
   -0.7273    0.1898    3.2095 H   0  0  0  0  0  0  0  0  0  0  0  0
   -0.6764    1.8214    2.5374 H   0  0  0  0  0  0  0  0  0  0  0  0
   -0.2572    2.3357    0.4606 H   0  0  0  0  0  0  0  0  0  0  0  0
   -1.2583    1.9154   -0.9690 H   0  0  0  0  0  0  0  0  0  0  0  0
    1.6513    1.0943   -0.4062 H   0  0  0  0  0  0  0  0  0  0  0  0
    1.0492    2.2523   -1.6474 H   0  0  0  0  0  0  0  0  0  0  0  0
    0.7888   -1.5859   -0.8827 H   0  0  0  0  0  0  0  0  0  0  0  0
   -0.2790   -1.7066   -2.3361 H   0  0  0  0  0  0  0  0  0  0  0  0
   -2.0227   -0.3929   -1.3034 H   0  0  0  0  0  0  0  0  0  0  0  0
   -1.5136   -1.6894   -0.1624 H   0  0  0  0  0  0  0  0  0  0  0  0
    1.6458   -1.9364   -3.5605 H   0  0  0  0  0  0  0  0  0  0  0  0
    2.5024   -0.8977   -4.7301 H   0  0  0  0  0  0  0  0  0  0  0  0
    4.8508    0.0828   -4.0868 H   0  0  0  0  0  0  0  0  0  0  0  0
    2.9374   -2.9043    0.8991 H   0  0  0  0  0  0  0  0  0  0  0  0
    3.9047   -3.6100    3.1879 H   0  0  0  0  0  0  0  0  0  0  0  0
    6.4072   -2.9271    3.4979 H   0  0  0  0  0  0  0  0  0  0  0  0
  1  2  1  0
  2  3  1  0
  3  4  1  0
  4  5  1  0
  5  6  1  0
  6  7  1  0
  6  8  1  0
  8  9  1  0
  9 10  1  0
 10 11  1  0
 11 12  1  0
 12 13  1  0
 11 14  1  0
 14 15  2  0
 14 16  1  0
 16 17  1  0
 17 18  2  0
 18 19  1  0
 19 20  1  0
 20 21  2  0
 20 22  1  0
 22 23  2  0
 23 24  1  0
 24 25  2  0
 25 26  1  0
  7  2  1  0
 13  8  1  0
 21 17  1  0
 26 22  1  0
  1 27  1  0
  1 28  1  0
  1 29  1  0
  3 30  1  0
  3 31  1  0
  4 32  1  0
  4 33  1  0
  5 34  1  0
  5 35  1  0
  6 36  1  0
  7 37  1  0
  7 38  1  0
  9 39  1  0
  9 40  1  0
 10 41  1  0
 10 42  1  0
 12 43  1  0
 12 44  1  0
 13 45  1  0
 13 46  1  0
 16 47  1  0
 16 48  1  0
 18 49  1  0
 23 50  1  0
 24 51  1  0
 25 52  1  0
M  END
$$$$
