
     RDKit          3D

 42 44  0  0  0  0  0  0  0  0999 V2000
   -2.9335   -4.2127   -5.0245 C   0  0  0  0  0  0  0  0  0  0  0  0
   -2.0962   -3.6654   -3.9194 C   0  0  0  0  0  0  0  0  0  0  0  0
   -1.5936   -4.4227   -2.9223 N   0  0  0  0  0  0  0  0  0  0  0  0
   -0.8958   -3.5409   -2.1811 C   0  0  0  0  0  0  0  0  0  0  0  0
   -0.9973   -2.2892   -2.7587 C   0  0  0  0  0  0  0  0  0  0  0  0
   -1.7427   -2.4039   -3.8308 O   0  0  0  0  0  0  0  0  0  0  0  0
   -0.3945   -1.0192   -2.2948 C   0  0  0  0  0  0  0  0  0  0  0  0
    0.4017   -0.9642   -1.1377 C   0  0  0  0  0  0  0  0  0  0  0  0
    0.9592    0.2466   -0.7168 C   0  0  0  0  0  0  0  0  0  0  0  0
    0.7266    1.4294   -1.4410 C   0  0  0  0  0  0  0  0  0  0  0  0
   -0.0592    1.3706   -2.6008 C   0  0  0  0  0  0  0  0  0  0  0  0
   -0.6164    0.1606   -3.0227 C   0  0  0  0  0  0  0  0  0  0  0  0
    1.2744    2.6938   -1.0281 N   0  0  0  0  0  0  0  0  0  0  0  0
    1.9312    2.9907    0.5505 S   0  0  0  0  0  0  0  0  0  0  0  0
    3.2398    2.2610    0.6752 O   0  0  0  0  0  0  0  0  0  0  0  0
    2.1894    4.4618    0.7158 O   0  0  0  0  0  0  0  0  0  0  0  0
    0.7914    2.4645    1.8021 C   0  0  0  0  0  0  0  0  0  0  0  0
    1.2477    1.5971    2.8083 C   0  0  0  0  0  0  0  0  0  0  0  0
    0.3759    1.1211    3.7966 C   0  0  0  0  0  0  0  0  0  0  0  0
    0.8856    0.2194    4.8820 C   0  0  0  0  0  0  0  0  0  0  0  0
   -0.9585    1.5420    3.7982 C   0  0  0  0  0  0  0  0  0  0  0  0
   -1.4243    2.4088    2.8092 C   0  0  0  0  0  0  0  0  0  0  0  0
   -0.5607    2.8886    1.8102 C   0  0  0  0  0  0  0  0  0  0  0  0
   -1.1182    3.8021    0.7502 C   0  0  0  0  0  0  0  0  0  0  0  0
   -3.6143   -4.9961   -4.6304 H   0  0  0  0  0  0  0  0  0  0  0  0
   -3.5407   -3.4007   -5.4765 H   0  0  0  0  0  0  0  0  0  0  0  0
   -2.2764   -4.6542   -5.8020 H   0  0  0  0  0  0  0  0  0  0  0  0
   -0.3530   -3.8069   -1.2849 H   0  0  0  0  0  0  0  0  0  0  0  0
    0.6006   -1.8525   -0.5544 H   0  0  0  0  0  0  0  0  0  0  0  0
    1.5767    0.2452    0.1693 H   0  0  0  0  0  0  0  0  0  0  0  0
   -0.2487    2.2682   -3.1760 H   0  0  0  0  0  0  0  0  0  0  0  0
   -1.2235    0.1490   -3.9195 H   0  0  0  0  0  0  0  0  0  0  0  0
    1.1840    3.5174   -1.6643 H   0  0  0  0  0  0  0  0  0  0  0  0
    2.2832    1.2812    2.8216 H   0  0  0  0  0  0  0  0  0  0  0  0
    1.6926   -0.4392    4.4958 H   0  0  0  0  0  0  0  0  0  0  0  0
    1.2868    0.8343    5.7144 H   0  0  0  0  0  0  0  0  0  0  0  0
    0.0714   -0.4289    5.2704 H   0  0  0  0  0  0  0  0  0  0  0  0
   -1.6415    1.1969    4.5648 H   0  0  0  0  0  0  0  0  0  0  0  0
   -2.4649    2.7088    2.8269 H   0  0  0  0  0  0  0  0  0  0  0  0
   -0.4280    4.6476    0.5551 H   0  0  0  0  0  0  0  0  0  0  0  0
   -1.2835    3.2307   -0.1860 H   0  0  0  0  0  0  0  0  0  0  0  0
   -2.0895    4.2396    1.0651 H   0  0  0  0  0  0  0  0  0  0  0  0
  1  2  1  0
  2  3  2  0
  3  4  1  0
  4  5  2  0
  5  6  1  0
  5  7  1  0
  7  8  2  0
  8  9  1  0
  9 10  2  0
 10 11  1  0
 11 12  2  0
 10 13  1  0
 13 14  1  0
 14 15  2  0
 14 16  2  0
 14 17  1  0
 17 18  2  0
 18 19  1  0
 19 20  1  0
 19 21  2  0
 21 22  1  0
 22 23  2  0
 23 24  1  0
  6  2  1  0
  7 12  1  0
 17 23  1  0
  1 25  1  0
  1 26  1  0
  1 27  1  0
  4 28  1  0
  8 29  1  0
  9 30  1  0
 11 31  1  0
 12 32  1  0
 13 33  1  0
 18 34  1  0
 20 35  1  0
 20 36  1  0
 20 37  1  0
 21 38  1  0
 22 39  1  0
 24 40  1  0
 24 41  1  0
 24 42  1  0
M  END
$$$$
