
     RDKit          3D

 42 43  0  0  0  0  0  0  0  0999 V2000
   -3.2751   -1.8970   -3.4725 C   0  0  0  0  0  0  0  0  0  0  0  0
   -2.0034   -2.0569   -2.6450 C   0  0  0  0  0  0  0  0  0  0  0  0
   -0.7529   -1.8499   -3.5055 C   0  0  0  0  0  0  0  0  0  0  0  0
    0.4538   -2.0384   -2.7032 N   0  0  0  0  0  0  0  0  0  0  0  0
    0.9015   -1.0685   -1.7451 C   0  0  0  0  0  0  0  0  0  0  0  0
    0.2810    0.0231   -1.6166 O   0  0  0  0  0  0  0  0  0  0  0  0
    2.0689   -1.3914   -0.8384 C   0  0  0  0  0  0  0  0  0  0  0  0
    2.9015   -0.1301   -0.4696 C   0  0  0  0  0  0  0  0  0  0  0  0
    2.6479    0.3737    0.9622 C   0  0  0  0  0  0  0  0  0  0  0  0
    1.2517    0.1437    1.3534 N   0  0  0  0  0  0  0  0  0  0  0  0
    0.7185   -1.2288    1.3126 C   0  0  0  0  0  0  0  0  0  0  0  0
    1.5754   -2.1395    0.4159 C   0  0  0  0  0  0  0  0  0  0  0  0
    0.3596    1.2598    1.5469 C   0  0  0  0  0  0  0  0  0  0  0  0
    0.5524    2.3288    0.9054 O   0  0  0  0  0  0  0  0  0  0  0  0
   -0.7977    1.1740    2.4641 C   0  0  0  0  0  0  0  0  0  0  0  0
   -2.0001    1.8279    2.1449 C   0  0  0  0  0  0  0  0  0  0  0  0
   -3.0951    1.7542    3.0109 C   0  0  0  0  0  0  0  0  0  0  0  0
   -2.9966    1.0379    4.2063 C   0  0  0  0  0  0  0  0  0  0  0  0
   -1.7990    0.3989    4.5419 C   0  0  0  0  0  0  0  0  0  0  0  0
   -1.6696   -0.4842    6.0520 Cl  0  0  0  0  0  0  0  0  0  0  0  0
   -0.7011    0.4707    3.6772 C   0  0  0  0  0  0  0  0  0  0  0  0
   -4.1626   -2.0520   -2.8235 H   0  0  0  0  0  0  0  0  0  0  0  0
   -3.3263   -0.8758   -3.9067 H   0  0  0  0  0  0  0  0  0  0  0  0
   -3.2993   -2.6464   -4.2922 H   0  0  0  0  0  0  0  0  0  0  0  0
   -1.9834   -3.0770   -2.2035 H   0  0  0  0  0  0  0  0  0  0  0  0
   -2.0205   -1.3181   -1.8154 H   0  0  0  0  0  0  0  0  0  0  0  0
   -0.7512   -0.8323   -3.9537 H   0  0  0  0  0  0  0  0  0  0  0  0
   -0.7543   -2.5902   -4.3353 H   0  0  0  0  0  0  0  0  0  0  0  0
    1.0158   -2.9072   -2.8488 H   0  0  0  0  0  0  0  0  0  0  0  0
    2.7413   -2.0806   -1.3958 H   0  0  0  0  0  0  0  0  0  0  0  0
    3.9836   -0.3704   -0.5600 H   0  0  0  0  0  0  0  0  0  0  0  0
    2.7102    0.6961   -1.1891 H   0  0  0  0  0  0  0  0  0  0  0  0
    2.9236    1.4478    1.0417 H   0  0  0  0  0  0  0  0  0  0  0  0
    3.3075   -0.1795    1.6660 H   0  0  0  0  0  0  0  0  0  0  0  0
    0.6825   -1.6530    2.3373 H   0  0  0  0  0  0  0  0  0  0  0  0
   -0.3174   -1.2153    0.9068 H   0  0  0  0  0  0  0  0  0  0  0  0
    0.9885   -3.0382    0.1242 H   0  0  0  0  0  0  0  0  0  0  0  0
    2.4568   -2.4957    0.9935 H   0  0  0  0  0  0  0  0  0  0  0  0
   -2.0956    2.3833    1.2199 H   0  0  0  0  0  0  0  0  0  0  0  0
   -4.0211    2.2527    2.7548 H   0  0  0  0  0  0  0  0  0  0  0  0
   -3.8480    0.9854    4.8728 H   0  0  0  0  0  0  0  0  0  0  0  0
    0.2300   -0.0013    3.9638 H   0  0  0  0  0  0  0  0  0  0  0  0
  1  2  1  0
  2  3  1  0
  3  4  1  0
  4  5  1  0
  5  6  2  0
  5  7  1  0
  7  8  1  0
  8  9  1  0
  9 10  1  0
 10 11  1  0
 11 12  1  0
 10 13  1  0
 13 14  2  0
 13 15  1  0
 15 16  2  0
 16 17  1  0
 17 18  2  0
 18 19  1  0
 19 20  1  0
 19 21  2  0
 12  7  1  0
 15 21  1  0
  1 22  1  0
  1 23  1  0
  1 24  1  0
  2 25  1  0
  2 26  1  0
  3 27  1  0
  3 28  1  0
  4 29  1  0
  7 30  1  0
  8 31  1  0
  8 32  1  0
  9 33  1  0
  9 34  1  0
 11 35  1  0
 11 36  1  0
 12 37  1  0
 12 38  1  0
 16 39  1  0
 17 40  1  0
 18 41  1  0
 21 42  1  0
M  END
$$$$
