
     RDKit          3D

 39 40  0  0  0  0  0  0  0  0999 V2000
   -4.1338    0.0310   -2.0777 C   0  0  0  0  0  0  0  0  0  0  0  0
   -4.5786   -1.2455   -1.3584 C   0  0  0  0  0  0  0  0  0  0  0  0
   -3.4825   -1.9819   -0.5215 C   0  0  0  0  0  0  0  0  0  0  0  0
   -4.0705   -3.3436   -0.1054 C   0  0  0  0  0  0  0  0  0  0  0  0
   -3.2045   -1.2891    0.6751 O   0  0  0  0  0  0  0  0  0  0  0  0
   -2.1732   -2.2544   -1.3264 C   0  0  0  0  0  0  0  0  0  0  0  0
   -1.2225   -1.0917   -1.4003 C   0  0  0  0  0  0  0  0  0  0  0  0
   -0.4310   -0.6051   -0.3815 C   0  0  0  0  0  0  0  0  0  0  0  0
    0.3004    0.3842   -0.9205 N   0  0  0  0  0  0  0  0  0  0  0  0
    1.3404    1.1613   -0.2569 C   0  0  0  0  0  0  0  0  0  0  0  0
    2.6645    0.4581   -0.3848 C   0  0  0  0  0  0  0  0  0  0  0  0
    3.4691    0.6806   -1.5118 C   0  0  0  0  0  0  0  0  0  0  0  0
    4.6836   -0.0075   -1.6459 C   0  0  0  0  0  0  0  0  0  0  0  0
    5.0621   -0.8963   -0.6863 N   0  0  0  0  0  0  0  0  0  0  0  0
    4.2957   -1.1413    0.4087 C   0  0  0  0  0  0  0  0  0  0  0  0
    3.0804   -0.4749    0.5786 C   0  0  0  0  0  0  0  0  0  0  0  0
    2.3178   -0.7403    1.6694 F   0  0  0  0  0  0  0  0  0  0  0  0
    5.5560    0.2215   -2.8453 C   0  0  0  0  0  0  0  0  0  0  0  0
    4.8729   -0.1411   -3.9917 F   0  0  0  0  0  0  0  0  0  0  0  0
    5.8986    1.5591   -2.9232 F   0  0  0  0  0  0  0  0  0  0  0  0
    6.7134   -0.5320   -2.7562 F   0  0  0  0  0  0  0  0  0  0  0  0
    0.0005    0.4786   -2.2060 N   0  0  0  0  0  0  0  0  0  0  0  0
   -0.9266   -0.4123   -2.5277 N   0  0  0  0  0  0  0  0  0  0  0  0
   -3.6036    0.7298   -1.4006 H   0  0  0  0  0  0  0  0  0  0  0  0
   -3.4892   -0.2207   -2.9435 H   0  0  0  0  0  0  0  0  0  0  0  0
   -5.0290    0.5545   -2.4748 H   0  0  0  0  0  0  0  0  0  0  0  0
   -5.4234   -0.9832   -0.6839 H   0  0  0  0  0  0  0  0  0  0  0  0
   -4.9845   -1.9342   -2.1326 H   0  0  0  0  0  0  0  0  0  0  0  0
   -4.2717   -3.9788   -0.9955 H   0  0  0  0  0  0  0  0  0  0  0  0
   -5.0218   -3.2033    0.4524 H   0  0  0  0  0  0  0  0  0  0  0  0
   -3.3654   -3.8861    0.5613 H   0  0  0  0  0  0  0  0  0  0  0  0
   -3.0520   -0.3335    0.4667 H   0  0  0  0  0  0  0  0  0  0  0  0
   -1.6103   -3.0932   -0.8608 H   0  0  0  0  0  0  0  0  0  0  0  0
   -2.4314   -2.5831   -2.3569 H   0  0  0  0  0  0  0  0  0  0  0  0
   -0.3744   -0.9500    0.6429 H   0  0  0  0  0  0  0  0  0  0  0  0
    1.0767    1.3100    0.8130 H   0  0  0  0  0  0  0  0  0  0  0  0
    1.3976    2.1724   -0.7162 H   0  0  0  0  0  0  0  0  0  0  0  0
    3.1536    1.3795   -2.2777 H   0  0  0  0  0  0  0  0  0  0  0  0
    4.6290   -1.8590    1.1465 H   0  0  0  0  0  0  0  0  0  0  0  0
  1  2  1  0
  2  3  1  0
  3  4  1  0
  3  5  1  0
  3  6  1  0
  6  7  1  0
  7  8  2  0
  8  9  1  0
  9 10  1  0
 10 11  1  0
 11 12  2  0
 12 13  1  0
 13 14  2  0
 14 15  1  0
 15 16  2  0
 16 17  1  0
 13 18  1  0
 18 19  1  0
 18 20  1  0
 18 21  1  0
  9 22  1  0
 22 23  2  0
 23  7  1  0
 16 11  1  0
  1 24  1  0
  1 25  1  0
  1 26  1  0
  2 27  1  0
  2 28  1  0
  4 29  1  0
  4 30  1  0
  4 31  1  0
  5 32  1  0
  6 33  1  0
  6 34  1  0
  8 35  1  0
 10 36  1  0
 10 37  1  0
 12 38  1  0
 15 39  1  0
M  END
$$$$
