
     RDKit          3D

 45 48  0  0  0  0  0  0  0  0999 V2000
    0.5002   -3.2230    0.2218 C   0  0  0  0  0  0  0  0  0  0  0  0
   -0.1659   -1.8615    0.4624 C   0  0  0  0  0  0  0  0  0  0  0  0
   -0.3463   -1.1212   -0.8784 C   0  0  0  0  0  0  0  0  0  0  0  0
   -0.6331    0.3025   -0.6669 N   0  0  0  0  0  0  0  0  0  0  0  0
    0.4962    1.2373   -0.6522 C   0  0  0  0  0  0  0  0  0  0  0  0
    1.2989    1.1347    0.6508 C   0  0  0  0  0  0  0  0  0  0  0  0
    1.7254   -0.2633    0.9317 N   0  0  0  0  0  0  0  0  0  0  0  0
    0.5996   -1.0368    1.5276 C   0  0  0  0  0  0  0  0  0  0  0  0
    2.8942   -0.2502    1.8442 C   0  0  0  0  0  0  0  0  0  0  0  0
    4.1788    0.2334    1.1612 C   0  0  0  0  0  0  0  0  0  0  0  0
    4.8237   -1.1233    1.3877 C   0  0  0  0  0  0  0  0  0  0  0  0
    3.5444   -1.6260    2.0344 C   0  0  0  0  0  0  0  0  0  0  0  0
   -1.9170    0.7226   -0.1688 C   0  0  0  0  0  0  0  0  0  0  0  0
   -1.9775    1.4810    0.8361 O   0  0  0  0  0  0  0  0  0  0  0  0
   -3.1697    0.3001   -0.8194 C   0  0  0  0  0  0  0  0  0  0  0  0
   -3.2858   -0.1309   -2.1589 C   0  0  0  0  0  0  0  0  0  0  0  0
   -4.6329   -0.3461   -2.2810 C   0  0  0  0  0  0  0  0  0  0  0  0
   -5.4750   -0.7267   -3.2021 O   0  0  0  0  0  0  0  0  0  0  0  0
   -6.6704   -0.6872   -2.6148 C   0  0  0  0  0  0  0  0  0  0  0  0
   -8.2957   -1.1470   -3.4980 Br  0  0  0  0  0  0  0  0  0  0  0  0
   -6.5782   -0.2632   -1.2759 C   0  0  0  0  0  0  0  0  0  0  0  0
   -5.2307   -0.0691   -1.1460 C   0  0  0  0  0  0  0  0  0  0  0  0
   -4.3857    0.3472   -0.1980 N   0  0  0  0  0  0  0  0  0  0  0  0
    1.5125   -3.0934   -0.2156 H   0  0  0  0  0  0  0  0  0  0  0  0
   -0.1133   -3.8270   -0.4806 H   0  0  0  0  0  0  0  0  0  0  0  0
    0.5859   -3.7880    1.1743 H   0  0  0  0  0  0  0  0  0  0  0  0
   -1.1803   -2.0653    0.8732 H   0  0  0  0  0  0  0  0  0  0  0  0
   -1.1602   -1.6036   -1.4567 H   0  0  0  0  0  0  0  0  0  0  0  0
    0.5745   -1.2277   -1.4944 H   0  0  0  0  0  0  0  0  0  0  0  0
    1.1668    1.0304   -1.5147 H   0  0  0  0  0  0  0  0  0  0  0  0
    0.1291    2.2799   -0.7758 H   0  0  0  0  0  0  0  0  0  0  0  0
    2.1762    1.8057    0.5258 H   0  0  0  0  0  0  0  0  0  0  0  0
    0.7176    1.5669    1.4957 H   0  0  0  0  0  0  0  0  0  0  0  0
    0.9408   -1.7271    2.3308 H   0  0  0  0  0  0  0  0  0  0  0  0
   -0.1263   -0.3746    2.0505 H   0  0  0  0  0  0  0  0  0  0  0  0
    2.6924    0.2686    2.8101 H   0  0  0  0  0  0  0  0  0  0  0  0
    4.0606    0.4519    0.0767 H   0  0  0  0  0  0  0  0  0  0  0  0
    4.6825    1.0447    1.7306 H   0  0  0  0  0  0  0  0  0  0  0  0
    5.0582   -1.6501    0.4367 H   0  0  0  0  0  0  0  0  0  0  0  0
    5.6738   -1.0774    2.1030 H   0  0  0  0  0  0  0  0  0  0  0  0
    3.0797   -2.4391    1.4391 H   0  0  0  0  0  0  0  0  0  0  0  0
    3.6842   -1.8833    3.1069 H   0  0  0  0  0  0  0  0  0  0  0  0
   -2.5179   -0.2323   -2.9142 H   0  0  0  0  0  0  0  0  0  0  0  0
   -7.3634   -0.1218   -0.5455 H   0  0  0  0  0  0  0  0  0  0  0  0
   -4.6087    0.6428    0.7784 H   0  0  0  0  0  0  0  0  0  0  0  0
  1  2  1  0
  2  3  1  0
  3  4  1  0
  4  5  1  0
  5  6  1  0
  6  7  1  0
  7  8  1  0
  7  9  1  0
  9 10  1  0
 10 11  1  0
 11 12  1  0
  4 13  1  0
 13 14  2  0
 13 15  1  0
 15 16  2  0
 16 17  1  0
 17 18  1  0
 18 19  1  0
 19 20  1  0
 19 21  2  0
 21 22  1  0
 22 23  1  0
  8  2  1  0
 12  9  1  0
 23 15  1  0
 17 22  2  0
  1 24  1  0
  1 25  1  0
  1 26  1  0
  2 27  1  0
  3 28  1  0
  3 29  1  0
  5 30  1  0
  5 31  1  0
  6 32  1  0
  6 33  1  0
  8 34  1  0
  8 35  1  0
  9 36  1  0
 10 37  1  0
 10 38  1  0
 11 39  1  0
 11 40  1  0
 12 41  1  0
 12 42  1  0
 16 43  1  0
 21 44  1  0
 23 45  1  0
M  END
$$$$
