
     RDKit          3D

 52 56  0  0  0  0  0  0  0  0999 V2000
    0.4129    1.6325    3.5768 O   0  0  0  0  0  0  0  0  0  0  0  0
    0.6776    0.8614    2.6151 C   0  0  0  0  0  0  0  0  0  0  0  0
   -0.0430    0.9593    1.3753 N   0  0  0  0  0  0  0  0  0  0  0  0
   -1.1071    1.8967    1.1331 C   0  0  0  0  0  0  0  0  0  0  0  0
   -1.6091    2.6983    2.1086 N   0  0  0  0  0  0  0  0  0  0  0  0
   -2.5724    3.3846    1.4745 C   0  0  0  0  0  0  0  0  0  0  0  0
   -3.4129    4.3522    2.0192 C   0  0  0  0  0  0  0  0  0  0  0  0
   -4.3650    4.9462    1.1723 C   0  0  0  0  0  0  0  0  0  0  0  0
   -4.4527    4.5614   -0.1831 C   0  0  0  0  0  0  0  0  0  0  0  0
   -3.5892    3.5802   -0.7043 C   0  0  0  0  0  0  0  0  0  0  0  0
   -2.6493    3.0087    0.1634 C   0  0  0  0  0  0  0  0  0  0  0  0
   -1.7188    2.0619   -0.0805 N   0  0  0  0  0  0  0  0  0  0  0  0
   -1.4628    1.3766   -1.3643 C   0  0  0  0  0  0  0  0  0  0  0  0
   -0.0089    1.5134   -1.8343 C   0  0  0  0  0  0  0  0  0  0  0  0
    0.4640    0.1117   -2.2142 C   0  0  0  0  0  0  0  0  0  0  0  0
   -0.7669   -0.7848   -2.2127 C   0  0  0  0  0  0  0  0  0  0  0  0
   -1.7800   -0.1159   -1.2989 C   0  0  0  0  0  0  0  0  0  0  0  0
    1.7445   -0.1412    2.7643 C   0  0  0  0  0  0  0  0  0  0  0  0
    2.5303   -0.3440    3.8780 C   0  0  0  0  0  0  0  0  0  0  0  0
    3.3585   -1.3208    3.6010 O   0  0  0  0  0  0  0  0  0  0  0  0
    3.1048   -1.7079    2.3703 C   0  0  0  0  0  0  0  0  0  0  0  0
    2.1009   -1.0093    1.7996 N   0  0  0  0  0  0  0  0  0  0  0  0
    3.8323   -2.8301    1.6831 C   0  0  0  0  0  0  0  0  0  0  0  0
    2.9644   -4.1040    1.6859 C   0  0  0  0  0  0  0  0  0  0  0  0
    3.3428   -5.0078    0.5019 C   0  0  0  0  0  0  0  0  0  0  0  0
    3.1472   -4.4093   -0.7759 O   0  0  0  0  0  0  0  0  0  0  0  0
    3.2565   -2.9903   -0.7837 C   0  0  0  0  0  0  0  0  0  0  0  0
    4.2544   -2.4386    0.2487 C   0  0  0  0  0  0  0  0  0  0  0  0
    0.2349    0.3084    0.6139 H   0  0  0  0  0  0  0  0  0  0  0  0
   -3.3377    4.6375    3.0603 H   0  0  0  0  0  0  0  0  0  0  0  0
   -5.0348    5.7015    1.5622 H   0  0  0  0  0  0  0  0  0  0  0  0
   -5.1906    5.0238   -0.8258 H   0  0  0  0  0  0  0  0  0  0  0  0
   -3.6700    3.2924   -1.7420 H   0  0  0  0  0  0  0  0  0  0  0  0
   -2.1006    1.8082   -2.1638 H   0  0  0  0  0  0  0  0  0  0  0  0
    0.6520    1.9508   -1.0558 H   0  0  0  0  0  0  0  0  0  0  0  0
    0.0391    2.1805   -2.7235 H   0  0  0  0  0  0  0  0  0  0  0  0
    0.9511    0.1103   -3.2135 H   0  0  0  0  0  0  0  0  0  0  0  0
    1.1984   -0.2577   -1.4657 H   0  0  0  0  0  0  0  0  0  0  0  0
   -1.1821   -0.8448   -3.2430 H   0  0  0  0  0  0  0  0  0  0  0  0
   -0.5196   -1.8097   -1.8598 H   0  0  0  0  0  0  0  0  0  0  0  0
   -1.6793   -0.5167   -0.2688 H   0  0  0  0  0  0  0  0  0  0  0  0
   -2.8174   -0.3178   -1.6440 H   0  0  0  0  0  0  0  0  0  0  0  0
    2.4901    0.1911    4.8176 H   0  0  0  0  0  0  0  0  0  0  0  0
    4.7601   -3.0369    2.2622 H   0  0  0  0  0  0  0  0  0  0  0  0
    3.1089   -4.6552    2.6407 H   0  0  0  0  0  0  0  0  0  0  0  0
    1.8834   -3.8521    1.5982 H   0  0  0  0  0  0  0  0  0  0  0  0
    4.4054   -5.3210    0.5973 H   0  0  0  0  0  0  0  0  0  0  0  0
    2.7261   -5.9297    0.5522 H   0  0  0  0  0  0  0  0  0  0  0  0
    3.5851   -2.6715   -1.7952 H   0  0  0  0  0  0  0  0  0  0  0  0
    2.2519   -2.5454   -0.6145 H   0  0  0  0  0  0  0  0  0  0  0  0
    4.3428   -1.3352    0.1366 H   0  0  0  0  0  0  0  0  0  0  0  0
    5.2563   -2.8693    0.0296 H   0  0  0  0  0  0  0  0  0  0  0  0
  1  2  2  0
  2  3  1  0
  3  4  1  0
  4  5  2  0
  5  6  1  0
  6  7  2  0
  7  8  1  0
  8  9  2  0
  9 10  1  0
 10 11  2  0
 11 12  1  0
 12 13  1  0
 13 14  1  0
 14 15  1  0
 15 16  1  0
 16 17  1  0
  2 18  1  0
 18 19  2  0
 19 20  1  0
 20 21  1  0
 21 22  2  0
 21 23  1  0
 23 24  1  0
 24 25  1  0
 25 26  1  0
 26 27  1  0
 27 28  1  0
 12  4  1  0
  6 11  1  0
 17 13  1  0
 22 18  1  0
 28 23  1  0
  3 29  1  0
  7 30  1  0
  8 31  1  0
  9 32  1  0
 10 33  1  0
 13 34  1  0
 14 35  1  0
 14 36  1  0
 15 37  1  0
 15 38  1  0
 16 39  1  0
 16 40  1  0
 17 41  1  0
 17 42  1  0
 19 43  1  0
 23 44  1  0
 24 45  1  0
 24 46  1  0
 25 47  1  0
 25 48  1  0
 27 49  1  0
 27 50  1  0
 28 51  1  0
 28 52  1  0
M  END
$$$$
