
     RDKit          3D

 40 42  0  0  0  0  0  0  0  0999 V2000
   -1.1075    2.6784   -0.4429 O   0  0  0  0  0  0  0  0  0  0  0  0
   -0.8670    1.5434    0.0532 C   0  0  0  0  0  0  0  0  0  0  0  0
   -0.8149    0.3886   -0.8018 N   0  0  0  0  0  0  0  0  0  0  0  0
   -0.5676    0.4530   -2.2172 C   0  0  0  0  0  0  0  0  0  0  0  0
   -1.1226   -0.5232   -3.0572 C   0  0  0  0  0  0  0  0  0  0  0  0
   -0.8804   -0.4932   -4.4319 C   0  0  0  0  0  0  0  0  0  0  0  0
   -0.0710    0.5041   -4.9795 C   0  0  0  0  0  0  0  0  0  0  0  0
    0.5118    1.4761   -4.1587 C   0  0  0  0  0  0  0  0  0  0  0  0
    0.2663    1.4425   -2.7712 C   0  0  0  0  0  0  0  0  0  0  0  0
    1.3284    2.4478   -4.7581 O   0  0  0  0  0  0  0  0  0  0  0  0
    1.9652    3.5162   -4.0629 C   0  0  0  0  0  0  0  0  0  0  0  0
    1.0132    4.3627   -3.5239 F   0  0  0  0  0  0  0  0  0  0  0  0
    2.7485    4.2286   -4.9501 F   0  0  0  0  0  0  0  0  0  0  0  0
   -0.6937    1.4095    1.5200 C   0  0  0  0  0  0  0  0  0  0  0  0
   -1.1479    2.4233    2.3819 C   0  0  0  0  0  0  0  0  0  0  0  0
   -0.9717    2.3097    3.7626 C   0  0  0  0  0  0  0  0  0  0  0  0
   -0.3459    1.1838    4.3003 C   0  0  0  0  0  0  0  0  0  0  0  0
    0.1024    0.1540    3.4623 C   0  0  0  0  0  0  0  0  0  0  0  0
   -0.0512    0.2847    2.0700 C   0  0  0  0  0  0  0  0  0  0  0  0
    0.7690   -0.9827    4.0375 N   0  0  0  0  0  0  0  0  0  0  0  0
    0.6635   -2.3208    3.5299 C   0  0  0  0  0  0  0  0  0  0  0  0
    1.5010   -3.2843    4.0003 N   0  0  0  0  0  0  0  0  0  0  0  0
    1.4114   -4.5669    3.5613 C   0  0  0  0  0  0  0  0  0  0  0  0
    0.4435   -4.9136    2.6199 C   0  0  0  0  0  0  0  0  0  0  0  0
   -0.4167   -3.9198    2.1562 C   0  0  0  0  0  0  0  0  0  0  0  0
   -0.2957   -2.6493    2.6205 N   0  0  0  0  0  0  0  0  0  0  0  0
   -1.0818   -0.5360   -0.3943 H   0  0  0  0  0  0  0  0  0  0  0  0
   -1.7515   -1.3029   -2.6459 H   0  0  0  0  0  0  0  0  0  0  0  0
   -1.3201   -1.2451   -5.0744 H   0  0  0  0  0  0  0  0  0  0  0  0
    0.1107    0.5184   -6.0467 H   0  0  0  0  0  0  0  0  0  0  0  0
    0.7384    2.1635   -2.1200 H   0  0  0  0  0  0  0  0  0  0  0  0
    2.6161    3.1158   -3.2573 H   0  0  0  0  0  0  0  0  0  0  0  0
   -1.6415    3.3036    1.9891 H   0  0  0  0  0  0  0  0  0  0  0  0
   -1.3218    3.0967    4.4180 H   0  0  0  0  0  0  0  0  0  0  0  0
   -0.2162    1.1088    5.3727 H   0  0  0  0  0  0  0  0  0  0  0  0
    0.3682   -0.4687    1.4174 H   0  0  0  0  0  0  0  0  0  0  0  0
    1.3001   -0.8446    4.9272 H   0  0  0  0  0  0  0  0  0  0  0  0
    2.0901   -5.3167    3.9451 H   0  0  0  0  0  0  0  0  0  0  0  0
    0.3592   -5.9311    2.2608 H   0  0  0  0  0  0  0  0  0  0  0  0
   -1.1823   -4.1576    1.4299 H   0  0  0  0  0  0  0  0  0  0  0  0
  1  2  2  0
  2  3  1  0
  3  4  1  0
  4  5  2  0
  5  6  1  0
  6  7  2  0
  7  8  1  0
  8  9  2  0
  8 10  1  0
 10 11  1  0
 11 12  1  0
 11 13  1  0
  2 14  1  0
 14 15  2  0
 15 16  1  0
 16 17  2  0
 17 18  1  0
 18 19  2  0
 18 20  1  0
 20 21  1  0
 21 22  2  0
 22 23  1  0
 23 24  2  0
 24 25  1  0
 25 26  2  0
  4  9  1  0
 14 19  1  0
 21 26  1  0
  3 27  1  0
  5 28  1  0
  6 29  1  0
  7 30  1  0
  9 31  1  0
 11 32  1  0
 15 33  1  0
 16 34  1  0
 17 35  1  0
 19 36  1  0
 20 37  1  0
 23 38  1  0
 24 39  1  0
 25 40  1  0
M  END
$$$$
