
     RDKit          3D

 41 43  0  0  0  0  0  0  0  0999 V2000
   -1.6917   -2.3350    2.7833 C   0  0  0  0  0  0  0  0  0  0  0  0
   -0.5974   -1.8709    1.9375 N   0  0  0  0  0  0  0  0  0  0  0  0
    0.2704   -2.6871    1.3618 N   0  0  0  0  0  0  0  0  0  0  0  0
    1.1556   -1.9335    0.6761 C   0  0  0  0  0  0  0  0  0  0  0  0
    0.8377   -0.5915    0.8324 C   0  0  0  0  0  0  0  0  0  0  0  0
   -0.2860   -0.5923    1.6350 C   0  0  0  0  0  0  0  0  0  0  0  0
   -0.9782    0.6061    2.1505 C   0  0  0  0  0  0  0  0  0  0  0  0
   -1.4361    0.5917    3.3246 O   0  0  0  0  0  0  0  0  0  0  0  0
   -1.1189    1.7923    1.3497 N   0  0  0  0  0  0  0  0  0  0  0  0
   -1.3534    3.1061    1.9280 C   0  0  0  0  0  0  0  0  0  0  0  0
   -1.8383    3.9780    0.7755 C   0  0  0  0  0  0  0  0  0  0  0  0
   -1.3734    3.2569   -0.5073 C   0  0  0  0  0  0  0  0  0  0  0  0
   -2.3504    3.4679   -1.5938 C   0  0  0  0  0  0  0  0  0  0  0  0
   -3.1165    3.6330   -2.4456 N   0  0  0  0  0  0  0  0  0  0  0  0
   -1.3116    1.7783   -0.0938 C   0  0  0  0  0  0  0  0  0  0  0  0
    0.0007    3.7228   -0.9677 C   0  0  0  0  0  0  0  0  0  0  0  0
    0.5316    3.2815   -2.2202 N   0  0  0  0  0  0  0  0  0  0  0  0
    0.7128    4.4582   -0.2307 O   0  0  0  0  0  0  0  0  0  0  0  0
    2.2905   -2.4969   -0.0946 C   0  0  0  0  0  0  0  0  0  0  0  0
    3.1499   -1.6686   -0.8430 C   0  0  0  0  0  0  0  0  0  0  0  0
    4.2135   -2.2195   -1.5647 C   0  0  0  0  0  0  0  0  0  0  0  0
    4.4323   -3.5988   -1.5499 C   0  0  0  0  0  0  0  0  0  0  0  0
    5.4644   -4.1296   -2.2508 F   0  0  0  0  0  0  0  0  0  0  0  0
    3.5863   -4.4307   -0.8136 C   0  0  0  0  0  0  0  0  0  0  0  0
    2.5211   -3.8856   -0.0903 C   0  0  0  0  0  0  0  0  0  0  0  0
   -1.8331   -3.4296    2.6593 H   0  0  0  0  0  0  0  0  0  0  0  0
   -1.4580   -2.1221    3.8473 H   0  0  0  0  0  0  0  0  0  0  0  0
   -2.6352   -1.8233    2.4985 H   0  0  0  0  0  0  0  0  0  0  0  0
    1.3708    0.2713    0.4576 H   0  0  0  0  0  0  0  0  0  0  0  0
   -2.1257    3.0572    2.7265 H   0  0  0  0  0  0  0  0  0  0  0  0
   -0.4028    3.5014    2.3461 H   0  0  0  0  0  0  0  0  0  0  0  0
   -1.4605    5.0203    0.8588 H   0  0  0  0  0  0  0  0  0  0  0  0
   -2.9512    4.0186    0.8175 H   0  0  0  0  0  0  0  0  0  0  0  0
   -0.4880    1.2426   -0.6081 H   0  0  0  0  0  0  0  0  0  0  0  0
   -2.2653    1.2496   -0.3181 H   0  0  0  0  0  0  0  0  0  0  0  0
   -0.0061    2.6287   -2.8324 H   0  0  0  0  0  0  0  0  0  0  0  0
    1.4793    3.5932   -2.5284 H   0  0  0  0  0  0  0  0  0  0  0  0
    3.0045   -0.5981   -0.8794 H   0  0  0  0  0  0  0  0  0  0  0  0
    4.8679   -1.5745   -2.1371 H   0  0  0  0  0  0  0  0  0  0  0  0
    3.7547   -5.5000   -0.8022 H   0  0  0  0  0  0  0  0  0  0  0  0
    1.8795   -4.5515    0.4732 H   0  0  0  0  0  0  0  0  0  0  0  0
  1  2  1  0
  2  3  1  0
  3  4  2  0
  4  5  1  0
  5  6  2  0
  6  7  1  0
  7  8  2  0
  7  9  1  0
  9 10  1  0
 10 11  1  0
 11 12  1  0
 12 13  1  0
 13 14  3  0
 12 15  1  0
 12 16  1  0
 16 17  1  0
 16 18  2  0
  4 19  1  0
 19 20  2  0
 20 21  1  0
 21 22  2  0
 22 23  1  0
 22 24  1  0
 24 25  2  0
  6  2  1  0
 15  9  1  0
 19 25  1  0
  1 26  1  0
  1 27  1  0
  1 28  1  0
  5 29  1  0
 10 30  1  0
 10 31  1  0
 11 32  1  0
 11 33  1  0
 15 34  1  0
 15 35  1  0
 17 36  1  0
 17 37  1  0
 20 38  1  0
 21 39  1  0
 24 40  1  0
 25 41  1  0
M  END
$$$$
