
     RDKit          3D

 41 43  0  0  0  0  0  0  0  0999 V2000
   -2.1719   -1.1886    1.0589 C   0  0  0  0  0  0  0  0  0  0  0  0
   -1.9073   -1.1401   -0.3762 N   0  0  0  0  0  0  0  0  0  0  0  0
   -2.3668   -2.0511   -1.2183 N   0  0  0  0  0  0  0  0  0  0  0  0
   -2.0253   -1.6725   -2.4685 C   0  0  0  0  0  0  0  0  0  0  0  0
   -1.3314   -0.4713   -2.4137 C   0  0  0  0  0  0  0  0  0  0  0  0
   -1.2640   -0.1753   -1.0688 C   0  0  0  0  0  0  0  0  0  0  0  0
   -0.6279    1.0237   -0.4989 C   0  0  0  0  0  0  0  0  0  0  0  0
   -0.9577    2.1565   -0.9419 O   0  0  0  0  0  0  0  0  0  0  0  0
    0.3835    0.9204    0.5165 N   0  0  0  0  0  0  0  0  0  0  0  0
    0.8321    2.0615    1.2951 C   0  0  0  0  0  0  0  0  0  0  0  0
    1.9383    1.5327    2.2002 C   0  0  0  0  0  0  0  0  0  0  0  0
    2.4000    0.2017    1.5726 C   0  0  0  0  0  0  0  0  0  0  0  0
    2.6822   -0.7949    2.6305 C   0  0  0  0  0  0  0  0  0  0  0  0
    2.9019   -1.5740    3.4578 N   0  0  0  0  0  0  0  0  0  0  0  0
    1.2047   -0.2639    0.7189 C   0  0  0  0  0  0  0  0  0  0  0  0
    3.6428    0.4286    0.7181 C   0  0  0  0  0  0  0  0  0  0  0  0
    3.5654    1.1240   -0.5300 N   0  0  0  0  0  0  0  0  0  0  0  0
    4.7749    0.0533    1.1309 O   0  0  0  0  0  0  0  0  0  0  0  0
   -2.3712   -2.4488   -3.6842 C   0  0  0  0  0  0  0  0  0  0  0  0
   -1.9880   -2.0101   -4.9669 C   0  0  0  0  0  0  0  0  0  0  0  0
   -2.3235   -2.7570   -6.1006 C   0  0  0  0  0  0  0  0  0  0  0  0
   -3.0428   -3.9469   -5.9699 C   0  0  0  0  0  0  0  0  0  0  0  0
   -3.3665   -4.6687   -7.0710 F   0  0  0  0  0  0  0  0  0  0  0  0
   -3.4283   -4.3927   -4.7039 C   0  0  0  0  0  0  0  0  0  0  0  0
   -3.0956   -3.6501   -3.5668 C   0  0  0  0  0  0  0  0  0  0  0  0
   -1.6177   -2.0372    1.5108 H   0  0  0  0  0  0  0  0  0  0  0  0
   -3.2584   -1.3390    1.2300 H   0  0  0  0  0  0  0  0  0  0  0  0
   -1.8698   -0.2446    1.5578 H   0  0  0  0  0  0  0  0  0  0  0  0
   -0.9202    0.1097   -3.2277 H   0  0  0  0  0  0  0  0  0  0  0  0
   -0.0085    2.4721    1.8954 H   0  0  0  0  0  0  0  0  0  0  0  0
    1.2290    2.8487    0.6181 H   0  0  0  0  0  0  0  0  0  0  0  0
    2.7650    2.2716    2.2960 H   0  0  0  0  0  0  0  0  0  0  0  0
    1.5086    1.3671    3.2147 H   0  0  0  0  0  0  0  0  0  0  0  0
    0.6006   -1.0347    1.2424 H   0  0  0  0  0  0  0  0  0  0  0  0
    1.5298   -0.6859   -0.2580 H   0  0  0  0  0  0  0  0  0  0  0  0
    4.4305    1.2867   -1.0913 H   0  0  0  0  0  0  0  0  0  0  0  0
    2.6598    1.4823   -0.9031 H   0  0  0  0  0  0  0  0  0  0  0  0
   -1.4301   -1.0942   -5.1020 H   0  0  0  0  0  0  0  0  0  0  0  0
   -2.0243   -2.4113   -7.0818 H   0  0  0  0  0  0  0  0  0  0  0  0
   -3.9857   -5.3150   -4.6016 H   0  0  0  0  0  0  0  0  0  0  0  0
   -3.4059   -4.0170   -2.5965 H   0  0  0  0  0  0  0  0  0  0  0  0
  1  2  1  0
  2  3  1  0
  3  4  2  0
  4  5  1  0
  5  6  2  0
  6  7  1  0
  7  8  2  0
  7  9  1  0
  9 10  1  0
 10 11  1  0
 11 12  1  0
 12 13  1  0
 13 14  3  0
 12 15  1  0
 12 16  1  0
 16 17  1  0
 16 18  2  0
  4 19  1  0
 19 20  2  0
 20 21  1  0
 21 22  2  0
 22 23  1  0
 22 24  1  0
 24 25  2  0
  6  2  1  0
 15  9  1  0
 19 25  1  0
  1 26  1  0
  1 27  1  0
  1 28  1  0
  5 29  1  0
 10 30  1  0
 10 31  1  0
 11 32  1  0
 11 33  1  0
 15 34  1  0
 15 35  1  0
 17 36  1  0
 17 37  1  0
 20 38  1  0
 21 39  1  0
 24 40  1  0
 25 41  1  0
M  END
$$$$
