
     RDKit          3D

 40 42  0  0  0  0  0  0  0  0999 V2000
    1.1829   -1.3667    1.7018 O   0  0  0  0  0  0  0  0  0  0  0  0
    0.7722   -1.1392    0.5307 C   0  0  0  0  0  0  0  0  0  0  0  0
    1.6899   -0.6526   -0.4635 N   0  0  0  0  0  0  0  0  0  0  0  0
    3.1166   -0.8174   -0.3823 C   0  0  0  0  0  0  0  0  0  0  0  0
    3.6886   -1.9498    0.2239 C   0  0  0  0  0  0  0  0  0  0  0  0
    5.0763   -2.0987    0.2692 C   0  0  0  0  0  0  0  0  0  0  0  0
    5.9052   -1.1289   -0.2980 C   0  0  0  0  0  0  0  0  0  0  0  0
    5.3570   -0.0039   -0.9237 C   0  0  0  0  0  0  0  0  0  0  0  0
    3.9562    0.1430   -0.9695 C   0  0  0  0  0  0  0  0  0  0  0  0
    6.2341    0.9362   -1.4866 O   0  0  0  0  0  0  0  0  0  0  0  0
    5.8299    2.1408   -2.1313 C   0  0  0  0  0  0  0  0  0  0  0  0
    5.2135    2.9798   -1.2204 F   0  0  0  0  0  0  0  0  0  0  0  0
    6.9452    2.7755   -2.6424 F   0  0  0  0  0  0  0  0  0  0  0  0
   -0.6640   -1.3284    0.2116 C   0  0  0  0  0  0  0  0  0  0  0  0
   -1.0972   -1.4617   -1.1198 C   0  0  0  0  0  0  0  0  0  0  0  0
   -2.4522   -1.6449   -1.4108 C   0  0  0  0  0  0  0  0  0  0  0  0
   -3.4025   -1.6891   -0.3770 C   0  0  0  0  0  0  0  0  0  0  0  0
   -2.9686   -1.5919    0.9517 C   0  0  0  0  0  0  0  0  0  0  0  0
   -1.6144   -1.4085    1.2449 C   0  0  0  0  0  0  0  0  0  0  0  0
   -4.7980   -1.9013   -0.6501 N   0  0  0  0  0  0  0  0  0  0  0  0
   -5.4894   -1.3609   -1.7852 C   0  0  0  0  0  0  0  0  0  0  0  0
   -4.9255   -0.3819   -2.5457 N   0  0  0  0  0  0  0  0  0  0  0  0
   -5.5877    0.1535   -3.6038 C   0  0  0  0  0  0  0  0  0  0  0  0
   -6.8701   -0.2925   -3.9187 C   0  0  0  0  0  0  0  0  0  0  0  0
   -7.4409   -1.2851   -3.1238 C   0  0  0  0  0  0  0  0  0  0  0  0
   -6.7458   -1.7958   -2.0742 N   0  0  0  0  0  0  0  0  0  0  0  0
    1.3107   -0.0489   -1.2274 H   0  0  0  0  0  0  0  0  0  0  0  0
    3.0658   -2.7297    0.6414 H   0  0  0  0  0  0  0  0  0  0  0  0
    5.5105   -2.9723    0.7383 H   0  0  0  0  0  0  0  0  0  0  0  0
    6.9798   -1.2551   -0.2581 H   0  0  0  0  0  0  0  0  0  0  0  0
    3.5089    1.0019   -1.4509 H   0  0  0  0  0  0  0  0  0  0  0  0
    5.1358    1.9142   -2.9679 H   0  0  0  0  0  0  0  0  0  0  0  0
   -0.3899   -1.4531   -1.9386 H   0  0  0  0  0  0  0  0  0  0  0  0
   -2.7506   -1.7821   -2.4417 H   0  0  0  0  0  0  0  0  0  0  0  0
   -3.6844   -1.6473    1.7624 H   0  0  0  0  0  0  0  0  0  0  0  0
   -1.3125   -1.3222    2.2813 H   0  0  0  0  0  0  0  0  0  0  0  0
   -5.3667   -2.4135    0.0619 H   0  0  0  0  0  0  0  0  0  0  0  0
   -5.1192    0.9269   -4.1976 H   0  0  0  0  0  0  0  0  0  0  0  0
   -7.4114    0.1249   -4.7578 H   0  0  0  0  0  0  0  0  0  0  0  0
   -8.4370   -1.6483   -3.3386 H   0  0  0  0  0  0  0  0  0  0  0  0
  1  2  2  0
  2  3  1  0
  3  4  1  0
  4  5  2  0
  5  6  1  0
  6  7  2  0
  7  8  1  0
  8  9  2  0
  8 10  1  0
 10 11  1  0
 11 12  1  0
 11 13  1  0
  2 14  1  0
 14 15  2  0
 15 16  1  0
 16 17  2  0
 17 18  1  0
 18 19  2  0
 17 20  1  0
 20 21  1  0
 21 22  2  0
 22 23  1  0
 23 24  2  0
 24 25  1  0
 25 26  2  0
  4  9  1  0
 14 19  1  0
 21 26  1  0
  3 27  1  0
  5 28  1  0
  6 29  1  0
  7 30  1  0
  9 31  1  0
 11 32  1  0
 15 33  1  0
 16 34  1  0
 18 35  1  0
 19 36  1  0
 20 37  1  0
 23 38  1  0
 24 39  1  0
 25 40  1  0
M  END
$$$$
