
     RDKit          3D

 38 40  0  0  0  0  0  0  0  0999 V2000
   -0.4448   -1.7245    5.5842 N   0  0  0  0  0  0  0  0  0  0  0  0
   -0.3532   -1.8381    4.4362 C   0  0  0  0  0  0  0  0  0  0  0  0
   -0.2391   -1.9790    3.0102 C   0  0  0  0  0  0  0  0  0  0  0  0
    0.1913   -0.9056    2.2261 C   0  0  0  0  0  0  0  0  0  0  0  0
    0.2933   -1.0802    0.8335 C   0  0  0  0  0  0  0  0  0  0  0  0
   -0.0399   -2.2909    0.3036 N   0  0  0  0  0  0  0  0  0  0  0  0
   -0.4581   -3.3214    1.0821 C   0  0  0  0  0  0  0  0  0  0  0  0
   -0.5545   -3.1624    2.4259 N   0  0  0  0  0  0  0  0  0  0  0  0
    0.7323   -0.0112   -0.0445 N   0  0  0  0  0  0  0  0  0  0  0  0
    0.5585   -0.1531   -1.5004 C   0  0  0  0  0  0  0  0  0  0  0  0
   -0.9116    0.0111   -1.9119 C   0  0  0  0  0  0  0  0  0  0  0  0
   -1.4302    1.4413   -1.6644 C   0  0  1  0  0  0  0  0  0  0  0  0
   -2.8480    1.6660   -2.1906 C   0  0  0  0  0  0  0  0  0  0  0  0
   -3.3298    1.9420   -0.7733 C   0  0  2  0  0  0  0  0  0  0  0  0
   -3.7318    3.2571   -0.6085 F   0  0  0  0  0  0  0  0  0  0  0  0
   -1.9245    1.7043   -0.2401 C   0  0  0  0  0  0  0  0  0  0  0  0
    1.4301    1.1779    0.4738 C   0  0  0  0  0  0  0  0  0  0  0  0
    2.7701    0.7994    1.0214 C   0  0  0  0  0  0  0  0  0  0  0  0
    3.2411    0.9870    2.3131 C   0  0  0  0  0  0  0  0  0  0  0  0
    4.5572    0.5138    2.4933 C   0  0  0  0  0  0  0  0  0  0  0  0
    5.1525   -0.0369    1.4030 N   0  0  0  0  0  0  0  0  0  0  0  0
    4.0167    0.0677    0.1946 S   0  0  0  0  0  0  0  0  0  0  0  0
    0.4286    0.0348    2.7024 H   0  0  0  0  0  0  0  0  0  0  0  0
   -0.7142   -4.2698    0.6305 H   0  0  0  0  0  0  0  0  0  0  0  0
    1.1754    0.5874   -2.0548 H   0  0  0  0  0  0  0  0  0  0  0  0
    0.9238   -1.1514   -1.8245 H   0  0  0  0  0  0  0  0  0  0  0  0
   -1.5472   -0.7375   -1.3906 H   0  0  0  0  0  0  0  0  0  0  0  0
   -0.9817   -0.2014   -3.0009 H   0  0  0  0  0  0  0  0  0  0  0  0
   -0.7303    2.2284   -2.0251 H   0  0  0  0  0  0  0  0  0  0  0  0
   -3.3223    0.7567   -2.6224 H   0  0  0  0  0  0  0  0  0  0  0  0
   -2.9181    2.5576   -2.8515 H   0  0  0  0  0  0  0  0  0  0  0  0
   -4.0755    1.2037   -0.4058 H   0  0  0  0  0  0  0  0  0  0  0  0
   -1.4705    2.6178    0.2024 H   0  0  0  0  0  0  0  0  0  0  0  0
   -1.8837    0.8198    0.4319 H   0  0  0  0  0  0  0  0  0  0  0  0
    0.8119    1.6825    1.2447 H   0  0  0  0  0  0  0  0  0  0  0  0
    1.5869    1.9318   -0.3266 H   0  0  0  0  0  0  0  0  0  0  0  0
    2.6609    1.4466    3.1024 H   0  0  0  0  0  0  0  0  0  0  0  0
    5.0705    0.5830    3.4428 H   0  0  0  0  0  0  0  0  0  0  0  0
  1  2  3  0
  2  3  1  0
  3  4  2  0
  4  5  1  0
  5  6  2  0
  6  7  1  0
  7  8  2  0
  5  9  1  0
  9 10  1  0
 10 11  1  0
 11 12  1  0
 12 13  1  0
 13 14  1  0
 14 15  1  0
 14 16  1  0
  9 17  1  0
 17 18  1  0
 18 19  2  0
 19 20  1  0
 20 21  2  0
 21 22  1  0
  3  8  1  0
 16 12  1  0
 22 18  1  0
  4 23  1  0
  7 24  1  0
 10 25  1  0
 10 26  1  0
 11 27  1  0
 11 28  1  0
 12 29  1  6
 13 30  1  0
 13 31  1  0
 14 32  1  1
 16 33  1  0
 16 34  1  0
 17 35  1  0
 17 36  1  0
 19 37  1  0
 20 38  1  0
M  END
$$$$
