
     RDKit          3D

 52 55  0  0  0  0  0  0  0  0999 V2000
   -3.6113    0.0028   -1.2264 C   0  0  0  0  0  0  0  0  0  0  0  0
   -3.8005    1.2965   -2.0265 C   0  0  0  0  0  0  0  0  0  0  0  0
   -2.8466    1.3773   -3.2230 C   0  0  0  0  0  0  0  0  0  0  0  0
   -3.7058    2.5213   -1.1465 C   0  0  0  0  0  0  0  0  0  0  0  0
   -4.7499    3.3587   -0.9475 N   0  0  0  0  0  0  0  0  0  0  0  0
   -4.3485    4.3190   -0.1214 N   0  0  0  0  0  0  0  0  0  0  0  0
   -3.0640    4.0495    0.1686 C   0  0  0  0  0  0  0  0  0  0  0  0
   -2.2371    4.7790    1.0165 C   0  0  0  0  0  0  0  0  0  0  0  0
   -0.9257    4.3151    1.2018 C   0  0  0  0  0  0  0  0  0  0  0  0
   -0.4707    3.1575    0.5320 C   0  0  0  0  0  0  0  0  0  0  0  0
   -1.3659    2.4591   -0.3060 C   0  0  0  0  0  0  0  0  0  0  0  0
   -2.6281    2.9428   -0.4498 N   0  0  0  0  0  0  0  0  0  0  0  0
    0.8622    2.6753    0.7655 N   0  0  0  0  0  0  0  0  0  0  0  0
    1.5591    1.8306   -0.1608 C   0  0  0  0  0  0  0  0  0  0  0  0
    1.4527    2.0504   -1.3987 O   0  0  0  0  0  0  0  0  0  0  0  0
    2.3753    0.7373    0.3096 N   0  0  0  0  0  0  0  0  0  0  0  0
    2.1967    0.1986    1.6666 C   0  0  0  0  0  0  0  0  0  0  0  0
    0.7940   -0.4061    1.8598 C   0  0  0  0  0  0  0  0  0  0  0  0
    0.3486   -1.3226    0.7083 C   0  0  0  0  0  0  0  0  0  0  0  0
    1.3473   -2.4290    0.4457 C   0  0  0  0  0  0  0  0  0  0  0  0
    1.2642   -3.5915    1.2334 C   0  0  0  0  0  0  0  0  0  0  0  0
    2.1953   -4.6198    1.0893 C   0  0  0  0  0  0  0  0  0  0  0  0
    3.2326   -4.4980    0.1681 C   0  0  0  0  0  0  0  0  0  0  0  0
    3.3412   -3.3490   -0.6158 C   0  0  0  0  0  0  0  0  0  0  0  0
    2.4041   -2.3048   -0.5001 C   0  0  0  0  0  0  0  0  0  0  0  0
    2.5945   -1.0754   -1.3681 C   0  0  0  0  0  0  0  0  0  0  0  0
    3.2977    0.0613   -0.6137 C   0  0  0  0  0  0  0  0  0  0  0  0
   -2.5764   -0.1016   -0.8458 H   0  0  0  0  0  0  0  0  0  0  0  0
   -3.8321   -0.8740   -1.8717 H   0  0  0  0  0  0  0  0  0  0  0  0
   -4.3122   -0.0179   -0.3647 H   0  0  0  0  0  0  0  0  0  0  0  0
   -4.8325    1.2676   -2.4420 H   0  0  0  0  0  0  0  0  0  0  0  0
   -3.0495    0.5386   -3.9227 H   0  0  0  0  0  0  0  0  0  0  0  0
   -3.0041    2.3304   -3.7719 H   0  0  0  0  0  0  0  0  0  0  0  0
   -1.7856    1.3167   -2.9110 H   0  0  0  0  0  0  0  0  0  0  0  0
   -2.5934    5.6671    1.5224 H   0  0  0  0  0  0  0  0  0  0  0  0
   -0.2608    4.8562    1.8630 H   0  0  0  0  0  0  0  0  0  0  0  0
   -1.0580    1.5503   -0.7958 H   0  0  0  0  0  0  0  0  0  0  0  0
    1.3481    2.9537    1.6470 H   0  0  0  0  0  0  0  0  0  0  0  0
    2.9526   -0.5898    1.8763 H   0  0  0  0  0  0  0  0  0  0  0  0
    2.3683    0.9980    2.4174 H   0  0  0  0  0  0  0  0  0  0  0  0
    0.0497    0.4111    1.9683 H   0  0  0  0  0  0  0  0  0  0  0  0
    0.7827   -0.9816    2.8110 H   0  0  0  0  0  0  0  0  0  0  0  0
   -0.6330   -1.7694    0.9797 H   0  0  0  0  0  0  0  0  0  0  0  0
    0.1447   -0.7232   -0.1993 H   0  0  0  0  0  0  0  0  0  0  0  0
    0.4783   -3.6977    1.9713 H   0  0  0  0  0  0  0  0  0  0  0  0
    2.1180   -5.5091    1.7014 H   0  0  0  0  0  0  0  0  0  0  0  0
    3.9592   -5.2937    0.0647 H   0  0  0  0  0  0  0  0  0  0  0  0
    4.1643   -3.2738   -1.3159 H   0  0  0  0  0  0  0  0  0  0  0  0
    1.6325   -0.7300   -1.7974 H   0  0  0  0  0  0  0  0  0  0  0  0
    3.2203   -1.3372   -2.2494 H   0  0  0  0  0  0  0  0  0  0  0  0
    3.6970    0.7947   -1.3480 H   0  0  0  0  0  0  0  0  0  0  0  0
    4.1813   -0.3328   -0.0649 H   0  0  0  0  0  0  0  0  0  0  0  0
  1  2  1  0
  2  3  1  0
  2  4  1  0
  4  5  2  0
  5  6  1  0
  6  7  2  0
  7  8  1  0
  8  9  2  0
  9 10  1  0
 10 11  2  0
 11 12  1  0
 10 13  1  0
 13 14  1  0
 14 15  2  0
 14 16  1  0
 16 17  1  0
 17 18  1  0
 18 19  1  0
 19 20  1  0
 20 21  2  0
 21 22  1  0
 22 23  2  0
 23 24  1  0
 24 25  2  0
 25 26  1  0
 26 27  1  0
 12  4  1  0
 12  7  1  0
 27 16  1  0
 20 25  1  0
  1 28  1  0
  1 29  1  0
  1 30  1  0
  2 31  1  0
  3 32  1  0
  3 33  1  0
  3 34  1  0
  8 35  1  0
  9 36  1  0
 11 37  1  0
 13 38  1  0
 17 39  1  0
 17 40  1  0
 18 41  1  0
 18 42  1  0
 19 43  1  0
 19 44  1  0
 21 45  1  0
 22 46  1  0
 23 47  1  0
 24 48  1  0
 26 49  1  0
 26 50  1  0
 27 51  1  0
 27 52  1  0
M  END
$$$$
