
     RDKit          3D

 44 46  0  0  0  0  0  0  0  0999 V2000
   -3.3516    4.6314    5.3597 C   0  0  0  0  0  0  0  0  0  0  0  0
   -4.2593    4.6922    4.2656 O   0  0  0  0  0  0  0  0  0  0  0  0
   -4.1221    3.8943    3.1264 C   0  0  0  0  0  0  0  0  0  0  0  0
   -5.0389    4.0212    2.0833 C   0  0  0  0  0  0  0  0  0  0  0  0
   -4.8773    3.2212    0.9539 C   0  0  0  0  0  0  0  0  0  0  0  0
   -3.8461    2.3398    0.8890 N   0  0  0  0  0  0  0  0  0  0  0  0
   -2.9580    2.2162    1.9144 C   0  0  0  0  0  0  0  0  0  0  0  0
   -3.1032    2.9978    3.0201 N   0  0  0  0  0  0  0  0  0  0  0  0
   -1.8611    1.2858    1.8223 N   0  0  0  0  0  0  0  0  0  0  0  0
   -0.8701    1.2255    2.9014 C   0  0  0  0  0  0  0  0  0  0  0  0
   -1.7920    0.3467    0.7327 C   0  0  0  0  0  0  0  0  0  0  0  0
   -2.8235   -0.3069    0.4158 O   0  0  0  0  0  0  0  0  0  0  0  0
   -0.5333    0.1333   -0.0211 C   0  0  0  0  0  0  0  0  0  0  0  0
    0.4510    1.1348   -0.0717 C   0  0  0  0  0  0  0  0  0  0  0  0
    1.6329    0.9305   -0.7891 C   0  0  0  0  0  0  0  0  0  0  0  0
    1.8556   -0.2744   -1.4642 C   0  0  0  0  0  0  0  0  0  0  0  0
    0.8584   -1.2655   -1.4461 C   0  0  0  0  0  0  0  0  0  0  0  0
   -0.3236   -1.0636   -0.7277 C   0  0  0  0  0  0  0  0  0  0  0  0
    3.0545   -0.4315   -2.1752 O   0  0  0  0  0  0  0  0  0  0  0  0
    3.7190   -1.6469   -2.3859 C   0  0  0  0  0  0  0  0  0  0  0  0
    4.7167   -1.7177   -3.3611 C   0  0  0  0  0  0  0  0  0  0  0  0
    5.4029   -2.9171   -3.5595 C   0  0  0  0  0  0  0  0  0  0  0  0
    5.0817   -4.0481   -2.7909 C   0  0  0  0  0  0  0  0  0  0  0  0
    4.0914   -3.9243   -1.8037 C   0  0  0  0  0  0  0  0  0  0  0  0
    3.4415   -2.7437   -1.6273 N   0  0  0  0  0  0  0  0  0  0  0  0
    5.8288   -5.3476   -2.9509 C   0  0  0  0  0  0  0  0  0  0  0  0
    4.9428   -6.4101   -2.9093 F   0  0  0  0  0  0  0  0  0  0  0  0
    6.7398   -5.4798   -1.9184 F   0  0  0  0  0  0  0  0  0  0  0  0
    6.5079   -5.3930   -4.1571 F   0  0  0  0  0  0  0  0  0  0  0  0
   -3.6613    5.3651    6.1318 H   0  0  0  0  0  0  0  0  0  0  0  0
   -2.3258    4.8824    5.0159 H   0  0  0  0  0  0  0  0  0  0  0  0
   -3.3604    3.6142    5.8048 H   0  0  0  0  0  0  0  0  0  0  0  0
   -5.8564    4.7281    2.1453 H   0  0  0  0  0  0  0  0  0  0  0  0
   -5.5708    3.3009    0.1280 H   0  0  0  0  0  0  0  0  0  0  0  0
   -0.1089    0.4395    2.7100 H   0  0  0  0  0  0  0  0  0  0  0  0
   -1.3747    0.9863    3.8613 H   0  0  0  0  0  0  0  0  0  0  0  0
   -0.3544    2.2046    2.9933 H   0  0  0  0  0  0  0  0  0  0  0  0
    0.3022    2.0824    0.4295 H   0  0  0  0  0  0  0  0  0  0  0  0
    2.3821    1.7115   -0.8178 H   0  0  0  0  0  0  0  0  0  0  0  0
    0.9777   -2.1833   -2.0057 H   0  0  0  0  0  0  0  0  0  0  0  0
   -1.0721   -1.8454   -0.7219 H   0  0  0  0  0  0  0  0  0  0  0  0
    4.9612   -0.8482   -3.9568 H   0  0  0  0  0  0  0  0  0  0  0  0
    6.1819   -2.9573   -4.3099 H   0  0  0  0  0  0  0  0  0  0  0  0
    3.8388   -4.7649   -1.1703 H   0  0  0  0  0  0  0  0  0  0  0  0
  1  2  1  0
  2  3  1  0
  3  4  2  0
  4  5  1  0
  5  6  2  0
  6  7  1  0
  7  8  2  0
  7  9  1  0
  9 10  1  0
  9 11  1  0
 11 12  2  0
 11 13  1  0
 13 14  2  0
 14 15  1  0
 15 16  2  0
 16 17  1  0
 17 18  2  0
 16 19  1  0
 19 20  1  0
 20 21  2  0
 21 22  1  0
 22 23  2  0
 23 24  1  0
 24 25  2  0
 23 26  1  0
 26 27  1  0
 26 28  1  0
 26 29  1  0
  3  8  1  0
 13 18  1  0
 20 25  1  0
  1 30  1  0
  1 31  1  0
  1 32  1  0
  4 33  1  0
  5 34  1  0
 10 35  1  0
 10 36  1  0
 10 37  1  0
 14 38  1  0
 15 39  1  0
 17 40  1  0
 18 41  1  0
 21 42  1  0
 22 43  1  0
 24 44  1  0
M  END
$$$$
