
     RDKit          3D

 46 48  0  0  0  0  0  0  0  0999 V2000
   -1.7176   -3.3737    0.5153 C   0  0  0  0  0  0  0  0  0  0  0  0
   -0.4891   -2.4910    0.2224 C   0  0  0  0  0  0  0  0  0  0  0  0
   -0.5208   -2.0673   -1.2591 C   0  0  0  0  0  0  0  0  0  0  0  0
    0.7125   -3.2685    0.4842 N   0  0  0  0  0  0  0  0  0  0  0  0
    1.2706   -2.8779    1.7202 C   0  0  0  0  0  0  0  0  0  0  0  0
    2.2670   -3.4537    2.2305 O   0  0  0  0  0  0  0  0  0  0  0  0
    0.5367   -1.7694    2.3649 C   0  0  0  0  0  0  0  0  0  0  0  0
   -0.4270   -1.2983    1.2493 C   0  0  0  0  0  0  0  0  0  0  0  0
    0.0714    0.0085    0.6450 C   0  0  0  0  0  0  0  0  0  0  0  0
    1.2945    0.1074    0.3481 O   0  0  0  0  0  0  0  0  0  0  0  0
   -0.8192    1.1155    0.3637 N   0  0  0  0  0  0  0  0  0  0  0  0
   -2.2453    1.0998    0.6607 C   0  0  0  0  0  0  0  0  0  0  0  0
   -2.7600    2.5001    0.3597 C   0  0  0  0  0  0  0  0  0  0  0  0
   -1.6825    3.1737   -0.4806 C   0  0  0  0  0  0  0  0  0  0  0  0
   -0.3775    2.3979   -0.1989 C   0  0  0  0  0  0  0  0  0  0  0  0
    0.4390    3.1432    0.8834 C   0  0  0  0  0  0  0  0  0  0  0  0
    0.3911    2.1777   -1.5124 C   0  0  0  0  0  0  0  0  0  0  0  0
    1.6028    2.8418   -1.8109 C   0  0  0  0  0  0  0  0  0  0  0  0
    2.2620    2.6110   -3.0224 C   0  0  0  0  0  0  0  0  0  0  0  0
    1.7229    1.7293   -3.9595 C   0  0  0  0  0  0  0  0  0  0  0  0
    0.5169    1.0819   -3.6926 C   0  0  0  0  0  0  0  0  0  0  0  0
   -0.1476    1.3092   -2.4852 C   0  0  0  0  0  0  0  0  0  0  0  0
   -1.7095   -3.7150    1.5730 H   0  0  0  0  0  0  0  0  0  0  0  0
   -2.6555   -2.8053    0.3348 H   0  0  0  0  0  0  0  0  0  0  0  0
   -1.7169   -4.2733   -0.1372 H   0  0  0  0  0  0  0  0  0  0  0  0
   -1.3980   -1.4153   -1.4526 H   0  0  0  0  0  0  0  0  0  0  0  0
   -0.5978   -2.9605   -1.9156 H   0  0  0  0  0  0  0  0  0  0  0  0
    0.4086   -1.5302   -1.5417 H   0  0  0  0  0  0  0  0  0  0  0  0
    1.0097   -4.1131   -0.0545 H   0  0  0  0  0  0  0  0  0  0  0  0
    1.2324   -0.9774    2.7191 H   0  0  0  0  0  0  0  0  0  0  0  0
   -0.0365   -2.1697    3.2290 H   0  0  0  0  0  0  0  0  0  0  0  0
   -1.4209   -1.1370    1.7128 H   0  0  0  0  0  0  0  0  0  0  0  0
   -2.7529    0.3490    0.0172 H   0  0  0  0  0  0  0  0  0  0  0  0
   -2.4196    0.8687    1.7334 H   0  0  0  0  0  0  0  0  0  0  0  0
   -2.8915    3.0632    1.3101 H   0  0  0  0  0  0  0  0  0  0  0  0
   -3.7322    2.4660   -0.1786 H   0  0  0  0  0  0  0  0  0  0  0  0
   -1.6068    4.2560   -0.2342 H   0  0  0  0  0  0  0  0  0  0  0  0
   -1.9811    3.1006   -1.5499 H   0  0  0  0  0  0  0  0  0  0  0  0
    0.6484    4.1904    0.5770 H   0  0  0  0  0  0  0  0  0  0  0  0
    1.4020    2.6274    1.0809 H   0  0  0  0  0  0  0  0  0  0  0  0
   -0.1311    3.1790    1.8369 H   0  0  0  0  0  0  0  0  0  0  0  0
    2.0550    3.5374   -1.1196 H   0  0  0  0  0  0  0  0  0  0  0  0
    3.1935    3.1196   -3.2355 H   0  0  0  0  0  0  0  0  0  0  0  0
    2.2363    1.5535   -4.8961 H   0  0  0  0  0  0  0  0  0  0  0  0
    0.0927    0.4062   -4.4239 H   0  0  0  0  0  0  0  0  0  0  0  0
   -1.0917    0.8108   -2.3097 H   0  0  0  0  0  0  0  0  0  0  0  0
  1  2  1  0
  2  3  1  0
  2  4  1  0
  4  5  1  0
  5  6  2  0
  5  7  1  0
  7  8  1  0
  8  9  1  0
  9 10  2  0
  9 11  1  0
 11 12  1  0
 12 13  1  0
 13 14  1  0
 14 15  1  0
 15 16  1  0
 15 17  1  0
 17 18  2  0
 18 19  1  0
 19 20  2  0
 20 21  1  0
 21 22  2  0
  8  2  1  0
 15 11  1  0
 17 22  1  0
  1 23  1  0
  1 24  1  0
  1 25  1  0
  3 26  1  0
  3 27  1  0
  3 28  1  0
  4 29  1  0
  7 30  1  0
  7 31  1  0
  8 32  1  0
 12 33  1  0
 12 34  1  0
 13 35  1  0
 13 36  1  0
 14 37  1  0
 14 38  1  0
 16 39  1  0
 16 40  1  0
 16 41  1  0
 18 42  1  0
 19 43  1  0
 20 44  1  0
 21 45  1  0
 22 46  1  0
M  END
$$$$
