
     RDKit          3D

 37 40  0  0  0  0  0  0  0  0999 V2000
   -3.0275    1.6397    0.5479 O   0  0  0  0  0  0  0  0  0  0  0  0
   -1.8814    1.4320    0.0691 C   0  0  0  0  0  0  0  0  0  0  0  0
   -0.6839    1.6504    0.8022 N   0  0  0  0  0  0  0  0  0  0  0  0
    0.4326    1.2082   -0.0297 C   0  0  0  0  0  0  0  0  0  0  0  0
    1.4998    2.3150   -0.2108 C   0  0  0  0  0  0  0  0  0  0  0  0
    2.8346    1.7380    0.3046 C   0  0  0  0  0  0  0  0  0  0  0  0
    2.4890    0.3774    0.7862 C   0  0  0  0  0  0  0  0  0  0  0  0
    3.3629   -0.5502    1.3594 C   0  0  0  0  0  0  0  0  0  0  0  0
    2.8599   -1.8007    1.7513 C   0  0  0  0  0  0  0  0  0  0  0  0
    1.4996   -2.1056    1.5658 C   0  0  0  0  0  0  0  0  0  0  0  0
    0.6386   -1.1608    0.9887 C   0  0  0  0  0  0  0  0  0  0  0  0
    1.1612    0.0800    0.6045 C   0  0  0  0  0  0  0  0  0  0  0  0
   -0.2401    0.7932   -1.3083 C   0  0  0  0  0  0  0  0  0  0  0  0
    0.3658    0.3557   -2.3228 O   0  0  0  0  0  0  0  0  0  0  0  0
   -1.6580    0.9184   -1.2374 N   0  0  0  0  0  0  0  0  0  0  0  0
   -2.6104    0.1029   -1.9889 C   0  0  0  0  0  0  0  0  0  0  0  0
   -2.6794   -1.2816   -1.3983 C   0  0  0  0  0  0  0  0  0  0  0  0
   -3.3858   -1.4539   -0.2461 N   0  0  0  0  0  0  0  0  0  0  0  0
   -3.4479   -2.6492    0.3965 C   0  0  0  0  0  0  0  0  0  0  0  0
   -2.7638   -3.7522   -0.1145 C   0  0  0  0  0  0  0  0  0  0  0  0
   -2.8259   -5.2964    0.7146 Cl  0  0  0  0  0  0  0  0  0  0  0  0
   -2.0276   -3.6119   -1.2915 C   0  0  0  0  0  0  0  0  0  0  0  0
   -1.9759   -2.3769   -1.9455 C   0  0  0  0  0  0  0  0  0  0  0  0
   -1.0379   -2.2569   -3.4297 Cl  0  0  0  0  0  0  0  0  0  0  0  0
   -0.6256    1.9734    1.7939 H   0  0  0  0  0  0  0  0  0  0  0  0
    1.2332    3.2223    0.3750 H   0  0  0  0  0  0  0  0  0  0  0  0
    1.6031    2.6151   -1.2770 H   0  0  0  0  0  0  0  0  0  0  0  0
    3.5808    1.6725   -0.5163 H   0  0  0  0  0  0  0  0  0  0  0  0
    3.2367    2.3501    1.1404 H   0  0  0  0  0  0  0  0  0  0  0  0
    4.4093   -0.3110    1.4981 H   0  0  0  0  0  0  0  0  0  0  0  0
    3.5212   -2.5326    2.1965 H   0  0  0  0  0  0  0  0  0  0  0  0
    1.1158   -3.0714    1.8677 H   0  0  0  0  0  0  0  0  0  0  0  0
   -0.4088   -1.3908    0.8412 H   0  0  0  0  0  0  0  0  0  0  0  0
   -2.3257    0.0843   -3.0609 H   0  0  0  0  0  0  0  0  0  0  0  0
   -3.6165    0.5716   -1.9369 H   0  0  0  0  0  0  0  0  0  0  0  0
   -4.0227   -2.7368    1.3088 H   0  0  0  0  0  0  0  0  0  0  0  0
   -1.4935   -4.4622   -1.6969 H   0  0  0  0  0  0  0  0  0  0  0  0
  1  2  2  0
  2  3  1  0
  3  4  1  0
  4  5  1  0
  5  6  1  0
  6  7  1  0
  7  8  2  0
  8  9  1  0
  9 10  2  0
 10 11  1  0
 11 12  2  0
  4 13  1  0
 13 14  2  0
 13 15  1  0
 15 16  1  0
 16 17  1  0
 17 18  2  0
 18 19  1  0
 19 20  2  0
 20 21  1  0
 20 22  1  0
 22 23  2  0
 23 24  1  0
 15  2  1  0
 12  4  1  0
  7 12  1  0
 17 23  1  0
  3 25  1  0
  5 26  1  0
  5 27  1  0
  6 28  1  0
  6 29  1  0
  8 30  1  0
  9 31  1  0
 10 32  1  0
 11 33  1  0
 16 34  1  0
 16 35  1  0
 19 36  1  0
 22 37  1  0
M  END
$$$$
