
     RDKit          3D

 51 53  0  0  0  0  0  0  0  0999 V2000
   -2.7454   -4.4623    4.1970 C   0  0  0  0  0  0  0  0  0  0  0  0
   -2.6408   -3.0280    4.5881 C   0  0  0  0  0  0  0  0  0  0  0  0
   -3.5656   -2.2275    4.2802 O   0  0  0  0  0  0  0  0  0  0  0  0
   -1.5358   -2.5948    5.3286 O   0  0  0  0  0  0  0  0  0  0  0  0
   -1.3320   -1.2354    5.7080 C   0  0  0  0  0  0  0  0  0  0  0  0
   -1.0458   -0.3798    4.5026 C   0  0  0  0  0  0  0  0  0  0  0  0
   -1.7402    0.6598    4.3332 O   0  0  0  0  0  0  0  0  0  0  0  0
   -0.0180   -0.7172    3.5422 N   0  0  0  0  0  0  0  0  0  0  0  0
    0.9439   -1.8080    3.8162 C   0  0  0  0  0  0  0  0  0  0  0  0
    2.3026   -1.5373    3.1600 C   0  0  0  0  0  0  0  0  0  0  0  0
    2.1027   -1.1623    1.7701 N   0  0  0  0  0  0  0  0  0  0  0  0
    2.9823   -1.3343    0.7955 N   0  0  0  0  0  0  0  0  0  0  0  0
    2.4514   -0.7925   -0.3220 C   0  0  0  0  0  0  0  0  0  0  0  0
    1.2105   -0.2545   -0.0249 C   0  0  0  0  0  0  0  0  0  0  0  0
    1.0272   -0.5071    1.3174 C   0  0  0  0  0  0  0  0  0  0  0  0
   -0.1139   -0.1039    2.2005 C   0  0  0  0  0  0  0  0  0  0  0  0
    0.1217    0.5698   -1.1293 S   0  0  0  0  0  0  0  0  0  0  0  0
    0.0111    2.2896   -0.6792 C   0  0  0  0  0  0  0  0  0  0  0  0
   -1.2348   -0.0737   -1.0577 O   0  0  0  0  0  0  0  0  0  0  0  0
    0.6839    0.4372   -2.5929 N   0  0  0  0  0  0  0  0  0  0  0  0
   -0.0187    0.8936   -3.7538 C   0  0  0  0  0  0  0  0  0  0  0  0
   -1.1483    1.4443   -3.6503 O   0  0  0  0  0  0  0  0  0  0  0  0
    0.6112    0.7584   -5.1078 C   0  0  0  0  0  0  0  0  0  0  0  0
    1.2513   -0.6055   -5.3880 C   0  0  0  0  0  0  0  0  0  0  0  0
   -0.0465   -0.2175   -6.0899 C   0  0  0  0  0  0  0  0  0  0  0  0
   -1.2897   -1.0097   -5.6579 C   0  0  0  0  0  0  0  0  0  0  0  0
    0.0884    0.1305   -7.5747 C   0  0  0  0  0  0  0  0  0  0  0  0
   -3.1949   -4.5493    3.1859 H   0  0  0  0  0  0  0  0  0  0  0  0
   -3.3821   -5.0003    4.9299 H   0  0  0  0  0  0  0  0  0  0  0  0
   -1.7363   -4.9245    4.1811 H   0  0  0  0  0  0  0  0  0  0  0  0
   -0.4769   -1.1757    6.4119 H   0  0  0  0  0  0  0  0  0  0  0  0
   -2.2293   -0.8624    6.2483 H   0  0  0  0  0  0  0  0  0  0  0  0
    0.5293   -2.7620    3.4242 H   0  0  0  0  0  0  0  0  0  0  0  0
    1.1189   -1.9233    4.9055 H   0  0  0  0  0  0  0  0  0  0  0  0
    2.9365   -2.4479    3.2206 H   0  0  0  0  0  0  0  0  0  0  0  0
    2.8144   -0.7061    3.6908 H   0  0  0  0  0  0  0  0  0  0  0  0
    2.9423   -0.7820   -1.2858 H   0  0  0  0  0  0  0  0  0  0  0  0
   -1.0725   -0.4027    1.7242 H   0  0  0  0  0  0  0  0  0  0  0  0
   -0.0923    1.0016    2.3020 H   0  0  0  0  0  0  0  0  0  0  0  0
    1.0286    2.7299   -0.6452 H   0  0  0  0  0  0  0  0  0  0  0  0
   -0.4641    2.3853    0.3176 H   0  0  0  0  0  0  0  0  0  0  0  0
   -0.6018    2.8386   -1.4224 H   0  0  0  0  0  0  0  0  0  0  0  0
    1.1625    1.6237   -5.5339 H   0  0  0  0  0  0  0  0  0  0  0  0
    1.1543   -1.3594   -4.5765 H   0  0  0  0  0  0  0  0  0  0  0  0
    2.1713   -0.5464   -6.0082 H   0  0  0  0  0  0  0  0  0  0  0  0
   -1.2290   -1.3558   -4.6037 H   0  0  0  0  0  0  0  0  0  0  0  0
   -1.4026   -1.9034   -6.3062 H   0  0  0  0  0  0  0  0  0  0  0  0
   -2.1919   -0.3725   -5.7711 H   0  0  0  0  0  0  0  0  0  0  0  0
    1.0190    0.6994   -7.7869 H   0  0  0  0  0  0  0  0  0  0  0  0
    0.1010   -0.8036   -8.1748 H   0  0  0  0  0  0  0  0  0  0  0  0
   -0.7805    0.7464   -7.8891 H   0  0  0  0  0  0  0  0  0  0  0  0
  1  2  1  0
  2  3  2  0
  2  4  1  0
  4  5  1  0
  5  6  1  0
  6  7  2  0
  6  8  1  0
  8  9  1  0
  9 10  1  0
 10 11  1  0
 11 12  1  0
 12 13  2  0
 13 14  1  0
 14 15  2  0
 15 16  1  0
 14 17  1  0
 17 18  1  0
 17 19  2  0
 17 20  2  0
 20 21  1  0
 21 22  2  0
 21 23  1  0
 23 24  1  0
 24 25  1  0
 25 26  1  0
 25 27  1  0
 16  8  1  0
 15 11  1  0
 25 23  1  0
  1 28  1  0
  1 29  1  0
  1 30  1  0
  5 31  1  0
  5 32  1  0
  9 33  1  0
  9 34  1  0
 10 35  1  0
 10 36  1  0
 13 37  1  0
 16 38  1  0
 16 39  1  0
 18 40  1  0
 18 41  1  0
 18 42  1  0
 23 43  1  0
 24 44  1  0
 24 45  1  0
 26 46  1  0
 26 47  1  0
 26 48  1  0
 27 49  1  0
 27 50  1  0
 27 51  1  0
M  END
$$$$
