
     RDKit          3D

 45 47  0  0  0  0  0  0  0  0999 V2000
   -4.0463   -2.3855   -0.0722 C   0  0  0  0  0  0  0  0  0  0  0  0
   -3.5020   -1.3967    0.8697 N   0  0  0  0  0  0  0  0  0  0  0  0
   -4.2563   -1.3591    2.1334 C   0  0  0  0  0  0  0  0  0  0  0  0
   -4.5014    0.1062    2.4909 C   0  0  0  0  0  0  0  0  0  0  0  0
   -3.6340    0.9092    1.5157 C   0  0  0  0  0  0  0  0  0  0  0  0
   -4.3113    2.2430    1.1367 C   0  0  0  0  0  0  0  0  0  0  0  0
   -2.2344    1.1604    2.1485 C   0  0  0  0  0  0  0  0  0  0  0  0
   -1.3305    1.8603    1.2319 N   0  0  0  0  0  0  0  0  0  0  0  0
   -0.2507    1.2110    0.5454 C   0  0  0  0  0  0  0  0  0  0  0  0
   -0.0442   -0.0220    0.7132 O   0  0  0  0  0  0  0  0  0  0  0  0
    0.5609    1.9643   -0.3684 N   0  0  0  0  0  0  0  0  0  0  0  0
    1.7748    1.4738   -0.9632 C   0  0  0  0  0  0  0  0  0  0  0  0
    2.1195    1.8831   -2.2591 C   0  0  0  0  0  0  0  0  0  0  0  0
    3.3039    1.4379   -2.8531 C   0  0  0  0  0  0  0  0  0  0  0  0
    4.1733    0.5864   -2.1532 C   0  0  0  0  0  0  0  0  0  0  0  0
    3.8412    0.1949   -0.8457 C   0  0  0  0  0  0  0  0  0  0  0  0
    2.6558    0.6398   -0.2529 C   0  0  0  0  0  0  0  0  0  0  0  0
    5.4239    0.1192   -2.7853 C   0  0  0  0  0  0  0  0  0  0  0  0
    6.3134   -0.6975   -2.1796 N   0  0  0  0  0  0  0  0  0  0  0  0
    7.2759   -0.8549   -3.1076 C   0  0  0  0  0  0  0  0  0  0  0  0
    6.9415   -0.1368   -4.2318 C   0  0  0  0  0  0  0  0  0  0  0  0
    5.7951    0.4522   -4.0021 O   0  0  0  0  0  0  0  0  0  0  0  0
   -3.5478   -0.0391    0.3166 C   0  0  0  0  0  0  0  0  0  0  0  0
   -5.1130   -2.1760   -0.3115 H   0  0  0  0  0  0  0  0  0  0  0  0
   -3.4553   -2.3752   -1.0131 H   0  0  0  0  0  0  0  0  0  0  0  0
   -3.9680   -3.4033    0.3662 H   0  0  0  0  0  0  0  0  0  0  0  0
   -3.6445   -1.8404    2.9261 H   0  0  0  0  0  0  0  0  0  0  0  0
   -5.2298   -1.8986    2.0725 H   0  0  0  0  0  0  0  0  0  0  0  0
   -5.5817    0.3313    2.3432 H   0  0  0  0  0  0  0  0  0  0  0  0
   -4.2532    0.3111    3.5560 H   0  0  0  0  0  0  0  0  0  0  0  0
   -4.3674    2.9129    2.0212 H   0  0  0  0  0  0  0  0  0  0  0  0
   -5.3439    2.0738    0.7622 H   0  0  0  0  0  0  0  0  0  0  0  0
   -3.7440    2.7563    0.3322 H   0  0  0  0  0  0  0  0  0  0  0  0
   -1.7827    0.1996    2.4798 H   0  0  0  0  0  0  0  0  0  0  0  0
   -2.3501    1.7811    3.0638 H   0  0  0  0  0  0  0  0  0  0  0  0
   -1.4803    2.8816    1.0717 H   0  0  0  0  0  0  0  0  0  0  0  0
    0.1958    2.8895   -0.6894 H   0  0  0  0  0  0  0  0  0  0  0  0
    1.4623    2.5408   -2.8142 H   0  0  0  0  0  0  0  0  0  0  0  0
    3.5401    1.7614   -3.8593 H   0  0  0  0  0  0  0  0  0  0  0  0
    4.5013   -0.4482   -0.2771 H   0  0  0  0  0  0  0  0  0  0  0  0
    2.4440    0.3519    0.7681 H   0  0  0  0  0  0  0  0  0  0  0  0
    8.1649   -1.4559   -2.9715 H   0  0  0  0  0  0  0  0  0  0  0  0
    7.5096   -0.0602   -5.1491 H   0  0  0  0  0  0  0  0  0  0  0  0
   -2.6530    0.1490   -0.3113 H   0  0  0  0  0  0  0  0  0  0  0  0
   -4.4471    0.0945   -0.3306 H   0  0  0  0  0  0  0  0  0  0  0  0
  1  2  1  0
  2  3  1  0
  3  4  1  0
  4  5  1  0
  5  6  1  0
  5  7  1  0
  7  8  1  0
  8  9  1  0
  9 10  2  0
  9 11  1  0
 11 12  1  0
 12 13  2  0
 13 14  1  0
 14 15  2  0
 15 16  1  0
 16 17  2  0
 15 18  1  0
 18 19  2  0
 19 20  1  0
 20 21  2  0
 21 22  1  0
  5 23  1  0
 23  2  1  0
 12 17  1  0
 22 18  1  0
  1 24  1  0
  1 25  1  0
  1 26  1  0
  3 27  1  0
  3 28  1  0
  4 29  1  0
  4 30  1  0
  6 31  1  0
  6 32  1  0
  6 33  1  0
  7 34  1  0
  7 35  1  0
  8 36  1  0
 11 37  1  0
 13 38  1  0
 14 39  1  0
 16 40  1  0
 17 41  1  0
 20 42  1  0
 21 43  1  0
 23 44  1  0
 23 45  1  0
M  END
$$$$
