
     RDKit          3D

 40 43  0  0  0  0  0  0  0  0999 V2000
   -1.4567    3.4664    1.0323 O   0  0  0  0  0  0  0  0  0  0  0  0
   -0.9231    2.3244    0.9829 C   0  0  0  0  0  0  0  0  0  0  0  0
   -0.1884    1.9255   -0.1874 N   0  0  0  0  0  0  0  0  0  0  0  0
   -0.2637    2.6210   -1.4416 C   0  0  0  0  0  0  0  0  0  0  0  0
   -1.0838    3.6679   -1.6902 N   0  0  0  0  0  0  0  0  0  0  0  0
   -0.8890    4.0304   -2.9553 N   0  0  0  0  0  0  0  0  0  0  0  0
    0.0431    3.1931   -3.4478 C   0  0  0  0  0  0  0  0  0  0  0  0
    0.5630    3.1901   -4.7395 C   0  0  0  0  0  0  0  0  0  0  0  0
    1.5312    2.2180   -5.0445 C   0  0  0  0  0  0  0  0  0  0  0  0
    1.9450    1.2911   -4.0656 C   0  0  0  0  0  0  0  0  0  0  0  0
    1.3833    1.3449   -2.7804 C   0  0  0  0  0  0  0  0  0  0  0  0
    0.4524    2.3030   -2.5338 N   0  0  0  0  0  0  0  0  0  0  0  0
   -1.0344    1.4206    2.1529 C   0  0  0  0  0  0  0  0  0  0  0  0
   -1.2741    1.9489    3.4334 C   0  0  0  0  0  0  0  0  0  0  0  0
   -1.3857    1.1021    4.5385 C   0  0  0  0  0  0  0  0  0  0  0  0
   -1.2558   -0.2790    4.3810 C   0  0  0  0  0  0  0  0  0  0  0  0
   -1.0069   -0.8273    3.1157 C   0  0  0  0  0  0  0  0  0  0  0  0
   -0.9259    0.0262    2.0006 C   0  0  0  0  0  0  0  0  0  0  0  0
   -0.9068   -2.2549    2.9710 N   0  0  0  0  0  0  0  0  0  0  0  0
   -0.1189   -2.9157    1.9651 C   0  0  0  0  0  0  0  0  0  0  0  0
   -0.5257   -4.1696    1.4834 C   0  0  0  0  0  0  0  0  0  0  0  0
    0.2357   -4.8380    0.5195 C   0  0  0  0  0  0  0  0  0  0  0  0
    1.4171   -4.2662    0.0402 C   0  0  0  0  0  0  0  0  0  0  0  0
    1.8435   -3.0293    0.5306 C   0  0  0  0  0  0  0  0  0  0  0  0
    1.0855   -2.3586    1.4954 C   0  0  0  0  0  0  0  0  0  0  0  0
    0.4566    1.1087   -0.1176 H   0  0  0  0  0  0  0  0  0  0  0  0
    0.2347    3.9070   -5.4808 H   0  0  0  0  0  0  0  0  0  0  0  0
    1.9612    2.1803   -6.0369 H   0  0  0  0  0  0  0  0  0  0  0  0
    2.6902    0.5433   -4.3034 H   0  0  0  0  0  0  0  0  0  0  0  0
    1.6886    0.6419   -2.0170 H   0  0  0  0  0  0  0  0  0  0  0  0
   -1.3690    3.0176    3.5811 H   0  0  0  0  0  0  0  0  0  0  0  0
   -1.5713    1.5178    5.5204 H   0  0  0  0  0  0  0  0  0  0  0  0
   -1.3429   -0.9238    5.2465 H   0  0  0  0  0  0  0  0  0  0  0  0
   -0.8142   -0.4032    1.0142 H   0  0  0  0  0  0  0  0  0  0  0  0
   -1.4456   -2.8523    3.6389 H   0  0  0  0  0  0  0  0  0  0  0  0
   -1.4391   -4.6228    1.8480 H   0  0  0  0  0  0  0  0  0  0  0  0
   -0.0897   -5.8000    0.1452 H   0  0  0  0  0  0  0  0  0  0  0  0
    2.0059   -4.7849   -0.7053 H   0  0  0  0  0  0  0  0  0  0  0  0
    2.7657   -2.5932    0.1687 H   0  0  0  0  0  0  0  0  0  0  0  0
    1.4463   -1.4150    1.8834 H   0  0  0  0  0  0  0  0  0  0  0  0
  1  2  2  0
  2  3  1  0
  3  4  1  0
  4  5  2  0
  5  6  1  0
  6  7  2  0
  7  8  1  0
  8  9  2  0
  9 10  1  0
 10 11  2  0
 11 12  1  0
  2 13  1  0
 13 14  2  0
 14 15  1  0
 15 16  2  0
 16 17  1  0
 17 18  2  0
 17 19  1  0
 19 20  1  0
 20 21  2  0
 21 22  1  0
 22 23  2  0
 23 24  1  0
 24 25  2  0
 12  4  1  0
 12  7  1  0
 13 18  1  0
 20 25  1  0
  3 26  1  0
  8 27  1  0
  9 28  1  0
 10 29  1  0
 11 30  1  0
 14 31  1  0
 15 32  1  0
 16 33  1  0
 18 34  1  0
 19 35  1  0
 21 36  1  0
 22 37  1  0
 23 38  1  0
 24 39  1  0
 25 40  1  0
M  END
$$$$
