
     RDKit          3D

 42 44  0  0  0  0  0  0  0  0999 V2000
   -2.3098   -0.3721   -2.8147 C   0  0  0  0  0  0  0  0  0  0  0  0
   -1.2003    0.1591   -1.9102 C   0  0  0  0  0  0  0  0  0  0  0  0
   -0.7639   -0.8595   -0.9390 N   0  0  0  0  0  0  0  0  0  0  0  0
   -1.6747   -1.2886    0.1364 C   0  0  0  0  0  0  0  0  0  0  0  0
   -2.0301   -0.1405    1.0297 C   0  0  0  0  0  0  0  0  0  0  0  0
   -1.2513    0.4052    2.0262 C   0  0  0  0  0  0  0  0  0  0  0  0
   -1.9397    1.4582    2.4970 N   0  0  0  0  0  0  0  0  0  0  0  0
   -1.4882    2.4129    3.5014 C   0  0  0  0  0  0  0  0  0  0  0  0
   -0.5946    3.4276    2.8670 C   0  0  0  0  0  0  0  0  0  0  0  0
    0.7436    3.2790    2.7601 N   0  0  0  0  0  0  0  0  0  0  0  0
    1.3121    4.3024    2.0684 C   0  0  0  0  0  0  0  0  0  0  0  0
    0.4244    5.2659    1.6038 C   0  0  0  0  0  0  0  0  0  0  0  0
   -1.1246    4.8138    2.0774 S   0  0  0  0  0  0  0  0  0  0  0  0
   -3.0666    1.5678    1.8115 N   0  0  0  0  0  0  0  0  0  0  0  0
   -3.1501    0.6015    0.9082 N   0  0  0  0  0  0  0  0  0  0  0  0
    0.5268   -1.4918   -1.0882 C   0  0  0  0  0  0  0  0  0  0  0  0
    0.9722   -1.9225   -2.3509 C   0  0  0  0  0  0  0  0  0  0  0  0
    2.2271   -2.5193   -2.4938 C   0  0  0  0  0  0  0  0  0  0  0  0
    3.0517   -2.6961   -1.3813 C   0  0  0  0  0  0  0  0  0  0  0  0
    2.6203   -2.2860   -0.1117 C   0  0  0  0  0  0  0  0  0  0  0  0
    1.3650   -1.6731    0.0265 C   0  0  0  0  0  0  0  0  0  0  0  0
    3.5244   -2.4362    1.0807 C   0  0  0  0  0  0  0  0  0  0  0  0
    4.3651   -1.3207    1.1901 O   0  0  0  0  0  0  0  0  0  0  0  0
   -3.2465   -0.5139   -2.2365 H   0  0  0  0  0  0  0  0  0  0  0  0
   -2.0127   -1.3386   -3.2718 H   0  0  0  0  0  0  0  0  0  0  0  0
   -2.5099    0.3601   -3.6251 H   0  0  0  0  0  0  0  0  0  0  0  0
   -0.3454    0.4888   -2.5402 H   0  0  0  0  0  0  0  0  0  0  0  0
   -1.5626    1.0629   -1.3763 H   0  0  0  0  0  0  0  0  0  0  0  0
   -2.5995   -1.7156   -0.3043 H   0  0  0  0  0  0  0  0  0  0  0  0
   -1.2207   -2.0964    0.7496 H   0  0  0  0  0  0  0  0  0  0  0  0
   -0.2729    0.0903    2.3625 H   0  0  0  0  0  0  0  0  0  0  0  0
   -0.9390    1.8805    4.3078 H   0  0  0  0  0  0  0  0  0  0  0  0
   -2.3642    2.9204    3.9596 H   0  0  0  0  0  0  0  0  0  0  0  0
    2.3777    4.3504    1.8895 H   0  0  0  0  0  0  0  0  0  0  0  0
    0.6856    6.1448    1.0302 H   0  0  0  0  0  0  0  0  0  0  0  0
    0.3488   -1.8031   -3.2262 H   0  0  0  0  0  0  0  0  0  0  0  0
    2.5622   -2.8436   -3.4706 H   0  0  0  0  0  0  0  0  0  0  0  0
    4.0260   -3.1514   -1.5093 H   0  0  0  0  0  0  0  0  0  0  0  0
    1.0502   -1.3249    1.0002 H   0  0  0  0  0  0  0  0  0  0  0  0
    2.9291   -2.5679    2.0132 H   0  0  0  0  0  0  0  0  0  0  0  0
    4.1514   -3.3462    0.9674 H   0  0  0  0  0  0  0  0  0  0  0  0
    3.8114   -0.5830    1.5582 H   0  0  0  0  0  0  0  0  0  0  0  0
  1  2  1  0
  2  3  1  0
  3  4  1  0
  4  5  1  0
  5  6  2  0
  6  7  1  0
  7  8  1  0
  8  9  1  0
  9 10  2  0
 10 11  1  0
 11 12  2  0
 12 13  1  0
  7 14  1  0
 14 15  2  0
  3 16  1  0
 16 17  2  0
 17 18  1  0
 18 19  2  0
 19 20  1  0
 20 21  2  0
 20 22  1  0
 22 23  1  0
 15  5  1  0
 13  9  1  0
 16 21  1  0
  1 24  1  0
  1 25  1  0
  1 26  1  0
  2 27  1  0
  2 28  1  0
  4 29  1  0
  4 30  1  0
  6 31  1  0
  8 32  1  0
  8 33  1  0
 11 34  1  0
 12 35  1  0
 17 36  1  0
 18 37  1  0
 19 38  1  0
 21 39  1  0
 22 40  1  0
 22 41  1  0
 23 42  1  0
M  END
$$$$
