
     RDKit          3D

 42 45  0  0  0  0  0  0  0  0999 V2000
    0.7708    0.8679    1.4154 O   0  0  0  0  0  0  0  0  0  0  0  0
    0.3629    0.2710    0.3825 C   0  0  0  0  0  0  0  0  0  0  0  0
   -0.0013   -1.1185    0.4488 N   0  0  0  0  0  0  0  0  0  0  0  0
   -0.0636   -1.8717    1.7092 C   0  0  0  0  0  0  0  0  0  0  0  0
    0.6950   -3.1708    1.5515 C   0  0  0  0  0  0  0  0  0  0  0  0
    0.2163   -4.1901    0.7103 C   0  0  0  0  0  0  0  0  0  0  0  0
    0.9405   -5.3737    0.5611 C   0  0  0  0  0  0  0  0  0  0  0  0
    2.1446   -5.5298    1.2487 C   0  0  0  0  0  0  0  0  0  0  0  0
    2.6039   -4.5341    2.0515 N   0  0  0  0  0  0  0  0  0  0  0  0
    1.9173   -3.3715    2.2148 C   0  0  0  0  0  0  0  0  0  0  0  0
   -1.5131   -2.1596    2.1771 C   0  0  0  0  0  0  0  0  0  0  0  0
   -2.3594   -0.9153    2.4136 C   0  0  0  0  0  0  0  0  0  0  0  0
   -2.6914   -1.8462    1.2588 C   0  0  0  0  0  0  0  0  0  0  0  0
    0.2697    1.0243   -0.8808 C   0  0  0  0  0  0  0  0  0  0  0  0
   -0.2200    0.5654   -2.0922 C   0  0  0  0  0  0  0  0  0  0  0  0
   -0.0974    1.6492   -2.9444 C   0  0  0  0  0  0  0  0  0  0  0  0
    0.4334    2.6797   -2.2550 N   0  0  0  0  0  0  0  0  0  0  0  0
    0.6550    2.3094   -1.0049 N   0  0  0  0  0  0  0  0  0  0  0  0
   -0.4855    1.6946   -4.3767 C   0  0  0  0  0  0  0  0  0  0  0  0
   -1.3863    0.7496   -4.9057 C   0  0  0  0  0  0  0  0  0  0  0  0
   -1.7504    0.7945   -6.2549 C   0  0  0  0  0  0  0  0  0  0  0  0
   -1.2206    1.7783   -7.0918 C   0  0  0  0  0  0  0  0  0  0  0  0
   -0.3249    2.7195   -6.5811 C   0  0  0  0  0  0  0  0  0  0  0  0
    0.0424    2.6805   -5.2323 C   0  0  0  0  0  0  0  0  0  0  0  0
   -0.2592   -1.6173   -0.4311 H   0  0  0  0  0  0  0  0  0  0  0  0
    0.4130   -1.2840    2.5241 H   0  0  0  0  0  0  0  0  0  0  0  0
   -0.7156   -4.0677    0.1724 H   0  0  0  0  0  0  0  0  0  0  0  0
    0.5728   -6.1620   -0.0830 H   0  0  0  0  0  0  0  0  0  0  0  0
    2.7164   -6.4418    1.1418 H   0  0  0  0  0  0  0  0  0  0  0  0
    2.3263   -2.6055    2.8608 H   0  0  0  0  0  0  0  0  0  0  0  0
   -1.6820   -2.9406    2.9500 H   0  0  0  0  0  0  0  0  0  0  0  0
   -3.0688   -0.9903    3.2648 H   0  0  0  0  0  0  0  0  0  0  0  0
   -1.9228    0.0542    2.0942 H   0  0  0  0  0  0  0  0  0  0  0  0
   -2.4891   -1.3968    0.2658 H   0  0  0  0  0  0  0  0  0  0  0  0
   -3.5943   -2.4662    1.4404 H   0  0  0  0  0  0  0  0  0  0  0  0
   -0.6045   -0.4172   -2.3259 H   0  0  0  0  0  0  0  0  0  0  0  0
    0.6285    3.6405   -2.6120 H   0  0  0  0  0  0  0  0  0  0  0  0
   -1.8233   -0.0154   -4.2779 H   0  0  0  0  0  0  0  0  0  0  0  0
   -2.4466    0.0666   -6.6513 H   0  0  0  0  0  0  0  0  0  0  0  0
   -1.5034    1.8108   -8.1361 H   0  0  0  0  0  0  0  0  0  0  0  0
    0.0891    3.4788   -7.2320 H   0  0  0  0  0  0  0  0  0  0  0  0
    0.7524    3.4116   -4.8707 H   0  0  0  0  0  0  0  0  0  0  0  0
  1  2  2  0
  2  3  1  0
  3  4  1  0
  4  5  1  0
  5  6  2  0
  6  7  1  0
  7  8  2  0
  8  9  1  0
  9 10  2  0
  4 11  1  0
 11 12  1  0
 12 13  1  0
  2 14  1  0
 14 15  1  0
 15 16  2  0
 16 17  1  0
 17 18  1  0
 16 19  1  0
 19 20  2  0
 20 21  1  0
 21 22  2  0
 22 23  1  0
 23 24  2  0
  5 10  1  0
 13 11  1  0
 14 18  2  0
 19 24  1  0
  3 25  1  0
  4 26  1  0
  6 27  1  0
  7 28  1  0
  8 29  1  0
 10 30  1  0
 11 31  1  0
 12 32  1  0
 12 33  1  0
 13 34  1  0
 13 35  1  0
 15 36  1  0
 17 37  1  0
 20 38  1  0
 21 39  1  0
 22 40  1  0
 23 41  1  0
 24 42  1  0
M  END
$$$$
