
     RDKit          3D

 52 57  0  0  0  0  0  0  0  0999 V2000
   -4.6389    3.7013   -1.6089 C   0  0  0  0  0  0  0  0  0  0  0  0
   -3.8665    2.6327   -0.9889 N   0  0  0  0  0  0  0  0  0  0  0  0
   -4.3811    1.6420   -0.0835 C   0  0  0  0  0  0  0  0  0  0  0  0
   -5.5978    1.3344    0.0204 O   0  0  0  0  0  0  0  0  0  0  0  0
   -3.2879    1.0902    0.7121 C   0  0  0  0  0  0  0  0  0  0  0  0
   -3.2112    0.1226    1.7112 C   0  0  0  0  0  0  0  0  0  0  0  0
   -1.9452   -0.1241    2.2886 C   0  0  0  0  0  0  0  0  0  0  0  0
   -0.7986    0.5970    1.8648 C   0  0  0  0  0  0  0  0  0  0  0  0
   -0.9101    1.5693    0.8414 C   0  0  0  0  0  0  0  0  0  0  0  0
    0.1445    2.3537    0.3033 C   0  0  0  0  0  0  0  0  0  0  0  0
   -0.1512    3.3163   -0.7036 C   0  0  0  0  0  0  0  0  0  0  0  0
   -1.4672    3.4892   -1.1886 C   0  0  0  0  0  0  0  0  0  0  0  0
   -2.4721    2.6783   -0.6618 C   0  0  0  0  0  0  0  0  0  0  0  0
   -2.1757    1.7675    0.3116 C   0  0  0  0  0  0  0  0  0  0  0  0
    1.8243    2.0939    0.7907 S   0  0  0  0  0  0  0  0  0  0  0  0
    2.0078    2.5964    2.1955 O   0  0  0  0  0  0  0  0  0  0  0  0
    2.7569    2.8386   -0.1249 O   0  0  0  0  0  0  0  0  0  0  0  0
    2.1735    0.3856    0.7114 N   0  0  0  0  0  0  0  0  0  0  0  0
    1.9879   -0.1426   -0.6453 C   0  0  0  0  0  0  0  0  0  0  0  0
    1.1865   -1.3818   -0.4668 C   0  0  0  0  0  0  0  0  0  0  0  0
   -0.1459   -1.4124   -0.9169 C   0  0  0  0  0  0  0  0  0  0  0  0
   -0.9940   -2.4529   -0.5434 C   0  0  0  0  0  0  0  0  0  0  0  0
   -0.5301   -3.4587    0.3004 C   0  0  0  0  0  0  0  0  0  0  0  0
    0.7907   -3.4407    0.7530 C   0  0  0  0  0  0  0  0  0  0  0  0
    1.6797   -2.4138    0.3654 C   0  0  0  0  0  0  0  0  0  0  0  0
    3.1215   -2.4882    0.7889 C   0  0  0  0  0  0  0  0  0  0  0  0
    3.7271   -3.7657    0.7528 C   0  0  0  0  0  0  0  0  0  0  0  0
    5.0521   -3.9562    1.1362 C   0  0  0  0  0  0  0  0  0  0  0  0
    5.8166   -2.8773    1.5563 C   0  0  0  0  0  0  0  0  0  0  0  0
    5.2647   -1.6001    1.5778 C   0  0  0  0  0  0  0  0  0  0  0  0
    3.9308   -1.3674    1.1864 C   0  0  0  0  0  0  0  0  0  0  0  0
    3.5067    0.0982    1.2468 C   0  0  0  0  0  0  0  0  0  0  0  0
   -4.7926    4.5227   -0.8782 H   0  0  0  0  0  0  0  0  0  0  0  0
   -4.0998    4.0926   -2.4964 H   0  0  0  0  0  0  0  0  0  0  0  0
   -5.6253    3.3131   -1.9383 H   0  0  0  0  0  0  0  0  0  0  0  0
   -4.0906   -0.4169    2.0372 H   0  0  0  0  0  0  0  0  0  0  0  0
   -1.8503   -0.8676    3.0691 H   0  0  0  0  0  0  0  0  0  0  0  0
    0.1474    0.3935    2.3454 H   0  0  0  0  0  0  0  0  0  0  0  0
    0.6388    3.9238   -1.1247 H   0  0  0  0  0  0  0  0  0  0  0  0
   -1.6812    4.2178   -1.9588 H   0  0  0  0  0  0  0  0  0  0  0  0
    1.4581    0.5739   -1.3114 H   0  0  0  0  0  0  0  0  0  0  0  0
    2.9517   -0.3765   -1.1519 H   0  0  0  0  0  0  0  0  0  0  0  0
   -0.5433   -0.6068   -1.5223 H   0  0  0  0  0  0  0  0  0  0  0  0
   -2.0216   -2.4621   -0.8831 H   0  0  0  0  0  0  0  0  0  0  0  0
   -1.1962   -4.2544    0.6083 H   0  0  0  0  0  0  0  0  0  0  0  0
    1.1143   -4.2303    1.4192 H   0  0  0  0  0  0  0  0  0  0  0  0
    3.1771   -4.6312    0.4051 H   0  0  0  0  0  0  0  0  0  0  0  0
    5.4883   -4.9463    1.1025 H   0  0  0  0  0  0  0  0  0  0  0  0
    6.8457   -3.0278    1.8563 H   0  0  0  0  0  0  0  0  0  0  0  0
    5.8916   -0.7761    1.8987 H   0  0  0  0  0  0  0  0  0  0  0  0
    3.5344    0.4079    2.3141 H   0  0  0  0  0  0  0  0  0  0  0  0
    4.2624    0.7085    0.7012 H   0  0  0  0  0  0  0  0  0  0  0  0
  1  2  1  0
  2  3  1  0
  3  4  2  0
  3  5  1  0
  5  6  2  0
  6  7  1  0
  7  8  2  0
  8  9  1  0
  9 10  2  0
 10 11  1  0
 11 12  2  0
 12 13  1  0
 13 14  2  0
 10 15  1  0
 15 16  2  0
 15 17  2  0
 15 18  1  0
 18 19  1  0
 19 20  1  0
 20 21  2  0
 21 22  1  0
 22 23  2  0
 23 24  1  0
 24 25  2  0
 25 26  1  0
 26 27  2  0
 27 28  1  0
 28 29  2  0
 29 30  1  0
 30 31  2  0
 31 32  1  0
 13  2  1  0
 14  5  1  0
 14  9  1  0
 32 18  1  0
 20 25  1  0
 26 31  1  0
  1 33  1  0
  1 34  1  0
  1 35  1  0
  6 36  1  0
  7 37  1  0
  8 38  1  0
 11 39  1  0
 12 40  1  0
 19 41  1  0
 19 42  1  0
 21 43  1  0
 22 44  1  0
 23 45  1  0
 24 46  1  0
 27 47  1  0
 28 48  1  0
 29 49  1  0
 30 50  1  0
 32 51  1  0
 32 52  1  0
M  END
$$$$
