
     RDKit          3D

 52 55  0  0  0  0  0  0  0  0999 V2000
   -0.2248   -2.3678   -6.7848 C   0  0  0  0  0  0  0  0  0  0  0  0
   -0.5866   -1.8753   -5.3790 C   0  0  0  0  0  0  0  0  0  0  0  0
   -1.9554   -2.4097   -4.9509 C   0  0  0  0  0  0  0  0  0  0  0  0
   -0.5767   -0.3683   -5.3074 C   0  0  0  0  0  0  0  0  0  0  0  0
   -0.9235    0.4482   -6.3309 N   0  0  0  0  0  0  0  0  0  0  0  0
   -0.8723    1.6995   -5.8827 N   0  0  0  0  0  0  0  0  0  0  0  0
   -0.5099    1.6192   -4.5899 C   0  0  0  0  0  0  0  0  0  0  0  0
   -0.3387    2.6781   -3.7047 C   0  0  0  0  0  0  0  0  0  0  0  0
    0.0240    2.3669   -2.3836 C   0  0  0  0  0  0  0  0  0  0  0  0
    0.1875    1.0178   -1.9793 C   0  0  0  0  0  0  0  0  0  0  0  0
    0.0161   -0.0025   -2.9340 C   0  0  0  0  0  0  0  0  0  0  0  0
   -0.3263    0.3524   -4.1991 N   0  0  0  0  0  0  0  0  0  0  0  0
    0.5725    0.6733   -0.6390 N   0  0  0  0  0  0  0  0  0  0  0  0
    0.1346    1.3873    0.5296 C   0  0  0  0  0  0  0  0  0  0  0  0
   -0.8171    2.2106    0.4377 O   0  0  0  0  0  0  0  0  0  0  0  0
    0.7207    1.1203    1.8231 N   0  0  0  0  0  0  0  0  0  0  0  0
   -0.0459    1.4156    3.0408 C   0  0  0  0  0  0  0  0  0  0  0  0
   -1.2107    0.4294    3.2136 C   0  0  0  0  0  0  0  0  0  0  0  0
   -0.7551   -0.9884    3.5949 C   0  0  0  0  0  0  0  0  0  0  0  0
   -0.2121   -1.7724    2.4142 C   0  0  0  0  0  0  0  0  0  0  0  0
   -1.1067   -2.5822    1.6897 C   0  0  0  0  0  0  0  0  0  0  0  0
   -0.6666   -3.3415    0.6051 C   0  0  0  0  0  0  0  0  0  0  0  0
    0.6722   -3.3042    0.2233 C   0  0  0  0  0  0  0  0  0  0  0  0
    1.5740   -2.4959    0.9153 C   0  0  0  0  0  0  0  0  0  0  0  0
    1.1503   -1.7147    2.0062 C   0  0  0  0  0  0  0  0  0  0  0  0
    2.1448   -0.7571    2.6257 C   0  0  0  0  0  0  0  0  0  0  0  0
    2.0996    0.6220    1.9502 C   0  0  0  0  0  0  0  0  0  0  0  0
   -0.9835   -2.0396   -7.5280 H   0  0  0  0  0  0  0  0  0  0  0  0
   -0.1715   -3.4774   -6.7977 H   0  0  0  0  0  0  0  0  0  0  0  0
    0.7686   -1.9698   -7.0840 H   0  0  0  0  0  0  0  0  0  0  0  0
    0.1804   -2.2734   -4.6805 H   0  0  0  0  0  0  0  0  0  0  0  0
   -2.7519   -2.0377   -5.6312 H   0  0  0  0  0  0  0  0  0  0  0  0
   -2.1866   -2.0817   -3.9146 H   0  0  0  0  0  0  0  0  0  0  0  0
   -1.9557   -3.5205   -4.9700 H   0  0  0  0  0  0  0  0  0  0  0  0
   -0.4744    3.7040   -4.0219 H   0  0  0  0  0  0  0  0  0  0  0  0
    0.1945    3.1759   -1.6861 H   0  0  0  0  0  0  0  0  0  0  0  0
    0.1418   -1.0426   -2.6608 H   0  0  0  0  0  0  0  0  0  0  0  0
    1.0689   -0.2333   -0.5048 H   0  0  0  0  0  0  0  0  0  0  0  0
    0.6070    1.3801    3.9405 H   0  0  0  0  0  0  0  0  0  0  0  0
   -0.4448    2.4516    2.9854 H   0  0  0  0  0  0  0  0  0  0  0  0
   -1.8570    0.8130    4.0328 H   0  0  0  0  0  0  0  0  0  0  0  0
   -1.8372    0.3977    2.2960 H   0  0  0  0  0  0  0  0  0  0  0  0
   -0.0355   -0.9589    4.4370 H   0  0  0  0  0  0  0  0  0  0  0  0
   -1.6375   -1.5259    4.0070 H   0  0  0  0  0  0  0  0  0  0  0  0
   -2.1526   -2.6286    1.9676 H   0  0  0  0  0  0  0  0  0  0  0  0
   -1.3666   -3.9609    0.0593 H   0  0  0  0  0  0  0  0  0  0  0  0
    1.0096   -3.8908   -0.6213 H   0  0  0  0  0  0  0  0  0  0  0  0
    2.6029   -2.4554    0.5791 H   0  0  0  0  0  0  0  0  0  0  0  0
    3.1748   -1.1642    2.5248 H   0  0  0  0  0  0  0  0  0  0  0  0
    1.9857   -0.6521    3.7157 H   0  0  0  0  0  0  0  0  0  0  0  0
    2.6023    0.5663    0.9620 H   0  0  0  0  0  0  0  0  0  0  0  0
    2.6924    1.3406    2.5564 H   0  0  0  0  0  0  0  0  0  0  0  0
  1  2  1  0
  2  3  1  0
  2  4  1  0
  4  5  2  0
  5  6  1  0
  6  7  2  0
  7  8  1  0
  8  9  2  0
  9 10  1  0
 10 11  2  0
 11 12  1  0
 10 13  1  0
 13 14  1  0
 14 15  2  0
 14 16  1  0
 16 17  1  0
 17 18  1  0
 18 19  1  0
 19 20  1  0
 20 21  2  0
 21 22  1  0
 22 23  2  0
 23 24  1  0
 24 25  2  0
 25 26  1  0
 26 27  1  0
 12  4  1  0
 12  7  1  0
 27 16  1  0
 20 25  1  0
  1 28  1  0
  1 29  1  0
  1 30  1  0
  2 31  1  0
  3 32  1  0
  3 33  1  0
  3 34  1  0
  8 35  1  0
  9 36  1  0
 11 37  1  0
 13 38  1  0
 17 39  1  0
 17 40  1  0
 18 41  1  0
 18 42  1  0
 19 43  1  0
 19 44  1  0
 21 45  1  0
 22 46  1  0
 23 47  1  0
 24 48  1  0
 26 49  1  0
 26 50  1  0
 27 51  1  0
 27 52  1  0
M  END
$$$$
