
     RDKit          3D

 47 49  0  0  0  0  0  0  0  0999 V2000
   -2.7566    1.7049   -1.8093 C   0  0  0  0  0  0  0  0  0  0  0  0
   -2.1094    0.8956   -0.7636 N   0  0  0  0  0  0  0  0  0  0  0  0
   -2.4130   -0.5282   -0.9926 C   0  0  0  0  0  0  0  0  0  0  0  0
   -0.6475    1.1422   -0.7553 C   0  0  0  0  0  0  0  0  0  0  0  0
   -0.0251    0.8088    0.6344 C   0  0  0  0  0  0  0  0  0  0  0  0
   -0.7329    1.5083    1.7839 C   0  0  0  0  0  0  0  0  0  0  0  0
   -1.1272    2.8605    1.7101 C   0  0  0  0  0  0  0  0  0  0  0  0
   -1.7450    3.4794    2.8010 C   0  0  0  0  0  0  0  0  0  0  0  0
   -1.9641    2.7664    3.9811 C   0  0  0  0  0  0  0  0  0  0  0  0
   -1.5608    1.4335    4.0754 C   0  0  0  0  0  0  0  0  0  0  0  0
   -0.9433    0.8090    2.9879 C   0  0  0  0  0  0  0  0  0  0  0  0
    1.4382    1.0562    0.7422 N   0  0  0  0  0  0  0  0  0  0  0  0
    1.9404    2.2436    0.0355 C   0  0  0  0  0  0  0  0  0  0  0  0
    2.4008   -0.3521    0.3456 S   0  0  0  0  0  0  0  0  0  0  0  0
    3.8595    0.0060    0.4182 O   0  0  0  0  0  0  0  0  0  0  0  0
    2.1526   -1.4275    1.3647 O   0  0  0  0  0  0  0  0  0  0  0  0
    2.0620   -0.9455   -1.2850 C   0  0  0  0  0  0  0  0  0  0  0  0
    2.6979   -0.3940   -2.3984 C   0  0  0  0  0  0  0  0  0  0  0  0
    2.1283   -1.1438   -3.7976 S   0  0  0  0  0  0  0  0  0  0  0  0
    1.0749   -2.1766   -3.0036 C   0  0  0  0  0  0  0  0  0  0  0  0
    0.2231   -3.1210   -3.5705 C   0  0  0  0  0  0  0  0  0  0  0  0
   -0.5908   -3.8776   -2.7175 C   0  0  0  0  0  0  0  0  0  0  0  0
   -0.5383   -3.6772   -1.3269 C   0  0  0  0  0  0  0  0  0  0  0  0
    0.3277   -2.7181   -0.7760 C   0  0  0  0  0  0  0  0  0  0  0  0
    1.1433   -1.9609   -1.6316 C   0  0  0  0  0  0  0  0  0  0  0  0
   -3.8529    1.5221   -1.8185 H   0  0  0  0  0  0  0  0  0  0  0  0
   -2.6143    2.7866   -1.5978 H   0  0  0  0  0  0  0  0  0  0  0  0
   -2.3388    1.4708   -2.8143 H   0  0  0  0  0  0  0  0  0  0  0  0
   -1.9648   -0.8922   -1.9441 H   0  0  0  0  0  0  0  0  0  0  0  0
   -3.5123   -0.6870   -1.0332 H   0  0  0  0  0  0  0  0  0  0  0  0
   -2.0428   -1.1453   -0.1500 H   0  0  0  0  0  0  0  0  0  0  0  0
   -0.1474    0.5560   -1.5539 H   0  0  0  0  0  0  0  0  0  0  0  0
   -0.4459    2.2061   -0.9998 H   0  0  0  0  0  0  0  0  0  0  0  0
   -0.2004   -0.2757    0.7827 H   0  0  0  0  0  0  0  0  0  0  0  0
   -0.9662    3.4441    0.8155 H   0  0  0  0  0  0  0  0  0  0  0  0
   -2.0511    4.5153    2.7321 H   0  0  0  0  0  0  0  0  0  0  0  0
   -2.4411    3.2488    4.8244 H   0  0  0  0  0  0  0  0  0  0  0  0
   -1.7230    0.8838    4.9936 H   0  0  0  0  0  0  0  0  0  0  0  0
   -0.6282   -0.2225    3.0867 H   0  0  0  0  0  0  0  0  0  0  0  0
    1.9264    2.0948   -1.0650 H   0  0  0  0  0  0  0  0  0  0  0  0
    1.3426    3.1385    0.3008 H   0  0  0  0  0  0  0  0  0  0  0  0
    2.9835    2.4548    0.3505 H   0  0  0  0  0  0  0  0  0  0  0  0
    3.4335    0.3987   -2.3732 H   0  0  0  0  0  0  0  0  0  0  0  0
    0.1870   -3.2659   -4.6425 H   0  0  0  0  0  0  0  0  0  0  0  0
   -1.2642   -4.6171   -3.1308 H   0  0  0  0  0  0  0  0  0  0  0  0
   -1.1751   -4.2622   -0.6761 H   0  0  0  0  0  0  0  0  0  0  0  0
    0.3324   -2.5781    0.2926 H   0  0  0  0  0  0  0  0  0  0  0  0
  1  2  1  0
  2  3  1  0
  2  4  1  0
  4  5  1  0
  5  6  1  0
  6  7  2  0
  7  8  1  0
  8  9  2  0
  9 10  1  0
 10 11  2  0
  5 12  1  0
 12 13  1  0
 12 14  1  0
 14 15  2  0
 14 16  2  0
 14 17  1  0
 17 18  2  0
 18 19  1  0
 19 20  1  0
 20 21  2  0
 21 22  1  0
 22 23  2  0
 23 24  1  0
 24 25  2  0
  6 11  1  0
 25 17  1  0
 20 25  1  0
  1 26  1  0
  1 27  1  0
  1 28  1  0
  3 29  1  0
  3 30  1  0
  3 31  1  0
  4 32  1  0
  4 33  1  0
  5 34  1  0
  7 35  1  0
  8 36  1  0
  9 37  1  0
 10 38  1  0
 11 39  1  0
 13 40  1  0
 13 41  1  0
 13 42  1  0
 18 43  1  0
 21 44  1  0
 22 45  1  0
 23 46  1  0
 24 47  1  0
M  END
$$$$
