
     RDKit          3D

 46 48  0  0  0  0  0  0  0  0999 V2000
   -1.3520   -3.0998   -2.4787 C   0  0  0  0  0  0  0  0  0  0  0  0
   -1.0481   -1.6334   -2.4023 C   0  0  0  0  0  0  0  0  0  0  0  0
   -2.0693   -0.6834   -2.5590 C   0  0  0  0  0  0  0  0  0  0  0  0
   -1.7737    0.6808   -2.5064 C   0  0  0  0  0  0  0  0  0  0  0  0
   -0.4568    1.1075   -2.3207 C   0  0  0  0  0  0  0  0  0  0  0  0
    0.5791    0.1685   -2.1857 C   0  0  0  0  0  0  0  0  0  0  0  0
    0.2753   -1.2025   -2.2195 C   0  0  0  0  0  0  0  0  0  0  0  0
    2.0065    0.6254   -2.0228 C   0  0  0  0  0  0  0  0  0  0  0  0
    2.4694    0.5898   -0.5512 C   0  0  0  0  0  0  0  0  0  0  0  0
    3.9267    1.0653   -0.4183 C   0  0  0  0  0  0  0  0  0  0  0  0
    4.3299    1.0542    0.9258 O   0  0  0  0  0  0  0  0  0  0  0  0
    1.5871    1.3614    0.3382 N   0  0  0  0  0  0  0  0  0  0  0  0
    1.3007    2.7651    0.1890 C   0  0  0  0  0  0  0  0  0  0  0  0
    1.8159    3.4136   -0.7634 O   0  0  0  0  0  0  0  0  0  0  0  0
    0.4614    3.5026    1.1641 C   0  0  0  0  0  0  0  0  0  0  0  0
    0.4510    4.8785    1.3032 C   0  0  0  0  0  0  0  0  0  0  0  0
   -0.3281    5.2043    2.3464 N   0  0  0  0  0  0  0  0  0  0  0  0
   -0.8289    4.1073    2.8889 N   0  0  0  0  0  0  0  0  0  0  0  0
   -0.3758    3.0520    2.1860 C   0  0  0  0  0  0  0  0  0  0  0  0
   -0.7725    1.6719    2.5085 C   0  0  0  0  0  0  0  0  0  0  0  0
   -0.5855    1.1848    3.8120 C   0  0  0  0  0  0  0  0  0  0  0  0
   -0.9776   -0.1160    4.1417 C   0  0  0  0  0  0  0  0  0  0  0  0
   -1.5832   -0.9284    3.1816 C   0  0  0  0  0  0  0  0  0  0  0  0
   -1.7982   -0.4413    1.8880 C   0  0  0  0  0  0  0  0  0  0  0  0
   -2.6042   -1.4519    0.7083 Cl  0  0  0  0  0  0  0  0  0  0  0  0
   -1.3906    0.8561    1.5476 C   0  0  0  0  0  0  0  0  0  0  0  0
   -0.8118   -3.6435   -1.6730 H   0  0  0  0  0  0  0  0  0  0  0  0
   -1.0234   -3.4941   -3.4634 H   0  0  0  0  0  0  0  0  0  0  0  0
   -2.4391   -3.2927   -2.3575 H   0  0  0  0  0  0  0  0  0  0  0  0
   -3.0940   -0.9970   -2.7142 H   0  0  0  0  0  0  0  0  0  0  0  0
   -2.5665    1.4100   -2.6153 H   0  0  0  0  0  0  0  0  0  0  0  0
   -0.2438    2.1692   -2.2940 H   0  0  0  0  0  0  0  0  0  0  0  0
    1.0697   -1.9321   -2.1169 H   0  0  0  0  0  0  0  0  0  0  0  0
    2.1358    1.6401   -2.4550 H   0  0  0  0  0  0  0  0  0  0  0  0
    2.6650   -0.0428   -2.6216 H   0  0  0  0  0  0  0  0  0  0  0  0
    2.4447   -0.4745   -0.2228 H   0  0  0  0  0  0  0  0  0  0  0  0
    4.0333    2.0986   -0.8101 H   0  0  0  0  0  0  0  0  0  0  0  0
    4.5975    0.4113   -1.0220 H   0  0  0  0  0  0  0  0  0  0  0  0
    4.4719    0.1029    1.1734 H   0  0  0  0  0  0  0  0  0  0  0  0
    1.2710    0.8674    1.1994 H   0  0  0  0  0  0  0  0  0  0  0  0
    1.0035    5.5947    0.7084 H   0  0  0  0  0  0  0  0  0  0  0  0
   -0.5082    6.1691    2.6989 H   0  0  0  0  0  0  0  0  0  0  0  0
   -0.1245    1.8070    4.5699 H   0  0  0  0  0  0  0  0  0  0  0  0
   -0.8163   -0.4916    5.1440 H   0  0  0  0  0  0  0  0  0  0  0  0
   -1.8935   -1.9318    3.4479 H   0  0  0  0  0  0  0  0  0  0  0  0
   -1.5643    1.2312    0.5472 H   0  0  0  0  0  0  0  0  0  0  0  0
  1  2  1  0
  2  3  2  0
  3  4  1  0
  4  5  2  0
  5  6  1  0
  6  7  2  0
  6  8  1  0
  8  9  1  0
  9 10  1  0
 10 11  1  0
  9 12  1  0
 12 13  1  0
 13 14  2  0
 13 15  1  0
 15 16  2  0
 16 17  1  0
 17 18  1  0
 18 19  2  0
 19 20  1  0
 20 21  2  0
 21 22  1  0
 22 23  2  0
 23 24  1  0
 24 25  1  0
 24 26  2  0
  2  7  1  0
 19 15  1  0
 20 26  1  0
  1 27  1  0
  1 28  1  0
  1 29  1  0
  3 30  1  0
  4 31  1  0
  5 32  1  0
  7 33  1  0
  8 34  1  0
  8 35  1  0
  9 36  1  0
 10 37  1  0
 10 38  1  0
 11 39  1  0
 12 40  1  0
 16 41  1  0
 17 42  1  0
 21 43  1  0
 22 44  1  0
 23 45  1  0
 26 46  1  0
M  END
$$$$
