
     RDKit          3D

 59 61  0  0  0  0  0  0  0  0999 V2000
   -4.3422    3.9784    1.0675 C   0  0  0  0  0  0  0  0  0  0  0  0
   -4.0655    3.1690   -0.1967 C   0  0  0  0  0  0  0  0  0  0  0  0
   -3.0784    2.1051    0.0794 N   0  0  0  0  0  0  0  0  0  0  0  0
   -3.7031    0.8586    0.6016 C   0  0  0  0  0  0  0  0  0  0  0  0
   -2.7157    0.0706    1.4838 C   0  0  0  0  0  0  0  0  0  0  0  0
   -3.4199   -1.0833    2.2275 C   0  0  0  0  0  0  0  0  0  0  0  0
   -4.5995   -1.6952    1.4425 C   0  0  0  0  0  0  0  0  0  0  0  0
   -4.4320   -1.5258   -0.0717 C   0  0  0  0  0  0  0  0  0  0  0  0
   -4.3778   -0.0397   -0.4782 C   0  0  0  0  0  0  0  0  0  0  0  0
   -1.9809    1.9033   -1.2788 S   0  0  0  0  0  0  0  0  0  0  0  0
   -2.7306    2.0342   -2.5762 O   0  0  0  0  0  0  0  0  0  0  0  0
   -1.2991    0.5646   -1.2491 O   0  0  0  0  0  0  0  0  0  0  0  0
   -0.7310    3.1813   -1.2127 C   0  0  0  0  0  0  0  0  0  0  0  0
   -0.1098    3.2991    0.1833 C   0  0  0  0  0  0  0  0  0  0  0  0
    0.5421    2.0529    0.5836 N   0  0  0  0  0  0  0  0  0  0  0  0
    1.7749    1.6017    0.0077 C   0  0  0  0  0  0  0  0  0  0  0  0
    2.3861    2.3293   -0.8209 O   0  0  0  0  0  0  0  0  0  0  0  0
    2.2864    0.3076    0.3597 N   0  0  0  0  0  0  0  0  0  0  0  0
    3.5862   -0.1812   -0.0009 C   0  0  0  0  0  0  0  0  0  0  0  0
    4.6811    0.5729   -0.3886 C   0  0  0  0  0  0  0  0  0  0  0  0
    5.6830   -0.3577   -0.5659 C   0  0  0  0  0  0  0  0  0  0  0  0
    5.1945   -1.5836   -0.2812 N   0  0  0  0  0  0  0  0  0  0  0  0
    3.9202   -1.4835    0.0657 N   0  0  0  0  0  0  0  0  0  0  0  0
    5.9216   -2.8274   -0.3539 C   0  0  0  0  0  0  0  0  0  0  0  0
    6.9032   -2.9999   -1.3479 C   0  0  0  0  0  0  0  0  0  0  0  0
    7.6156   -4.1961   -1.4458 C   0  0  0  0  0  0  0  0  0  0  0  0
    7.3612   -5.2372   -0.5539 C   0  0  0  0  0  0  0  0  0  0  0  0
    6.3943   -5.0870    0.4422 C   0  0  0  0  0  0  0  0  0  0  0  0
    6.1699   -6.1095    1.3067 F   0  0  0  0  0  0  0  0  0  0  0  0
    5.6697   -3.8884    0.5511 C   0  0  0  0  0  0  0  0  0  0  0  0
    4.7119   -3.7542    1.6229 C   0  0  0  0  0  0  0  0  0  0  0  0
    3.9447   -3.6490    2.4830 N   0  0  0  0  0  0  0  0  0  0  0  0
   -4.8275    3.3524    1.8437 H   0  0  0  0  0  0  0  0  0  0  0  0
   -5.0208    4.8240    0.8270 H   0  0  0  0  0  0  0  0  0  0  0  0
   -3.3922    4.3883    1.4713 H   0  0  0  0  0  0  0  0  0  0  0  0
   -5.0152    2.7494   -0.5951 H   0  0  0  0  0  0  0  0  0  0  0  0
   -3.6813    3.8870   -0.9541 H   0  0  0  0  0  0  0  0  0  0  0  0
   -4.5175    1.1509    1.3025 H   0  0  0  0  0  0  0  0  0  0  0  0
   -1.9000   -0.3595    0.8709 H   0  0  0  0  0  0  0  0  0  0  0  0
   -2.2505    0.7534    2.2274 H   0  0  0  0  0  0  0  0  0  0  0  0
   -3.7992   -0.7125    3.2050 H   0  0  0  0  0  0  0  0  0  0  0  0
   -2.6706   -1.8756    2.4458 H   0  0  0  0  0  0  0  0  0  0  0  0
   -5.5479   -1.2045    1.7555 H   0  0  0  0  0  0  0  0  0  0  0  0
   -4.6870   -2.7759    1.6879 H   0  0  0  0  0  0  0  0  0  0  0  0
   -5.2766   -2.0222   -0.5967 H   0  0  0  0  0  0  0  0  0  0  0  0
   -3.4943   -2.0328   -0.3904 H   0  0  0  0  0  0  0  0  0  0  0  0
   -3.8715    0.0151   -1.4591 H   0  0  0  0  0  0  0  0  0  0  0  0
   -5.4160    0.3228   -0.6407 H   0  0  0  0  0  0  0  0  0  0  0  0
    0.0532    2.9626   -1.9672 H   0  0  0  0  0  0  0  0  0  0  0  0
   -1.2001    4.1517   -1.4794 H   0  0  0  0  0  0  0  0  0  0  0  0
   -0.9034    3.5532    0.9186 H   0  0  0  0  0  0  0  0  0  0  0  0
    0.6299    4.1281    0.1949 H   0  0  0  0  0  0  0  0  0  0  0  0
    0.1067    1.4875    1.3468 H   0  0  0  0  0  0  0  0  0  0  0  0
    1.6508   -0.3464    0.8691 H   0  0  0  0  0  0  0  0  0  0  0  0
    4.7650    1.6452   -0.4956 H   0  0  0  0  0  0  0  0  0  0  0  0
    6.7039   -0.1442   -0.8551 H   0  0  0  0  0  0  0  0  0  0  0  0
    7.1065   -2.2124   -2.0621 H   0  0  0  0  0  0  0  0  0  0  0  0
    8.3644   -4.3175   -2.2179 H   0  0  0  0  0  0  0  0  0  0  0  0
    7.9173   -6.1621   -0.6333 H   0  0  0  0  0  0  0  0  0  0  0  0
  1  2  1  0
  2  3  1  0
  3  4  1  0
  4  5  1  0
  5  6  1  0
  6  7  1  0
  7  8  1  0
  8  9  1  0
  3 10  1  0
 10 11  2  0
 10 12  2  0
 10 13  1  0
 13 14  1  0
 14 15  1  0
 15 16  1  0
 16 17  2  0
 16 18  1  0
 18 19  1  0
 19 20  1  0
 20 21  2  0
 21 22  1  0
 22 23  1  0
 22 24  1  0
 24 25  2  0
 25 26  1  0
 26 27  2  0
 27 28  1  0
 28 29  1  0
 28 30  2  0
 30 31  1  0
 31 32  3  0
  9  4  1  0
 19 23  2  0
 24 30  1  0
  1 33  1  0
  1 34  1  0
  1 35  1  0
  2 36  1  0
  2 37  1  0
  4 38  1  0
  5 39  1  0
  5 40  1  0
  6 41  1  0
  6 42  1  0
  7 43  1  0
  7 44  1  0
  8 45  1  0
  8 46  1  0
  9 47  1  0
  9 48  1  0
 13 49  1  0
 13 50  1  0
 14 51  1  0
 14 52  1  0
 15 53  1  0
 18 54  1  0
 20 55  1  0
 21 56  1  0
 25 57  1  0
 26 58  1  0
 27 59  1  0
M  END
$$$$
