
     RDKit          3D

 59 61  0  0  0  0  0  0  0  0999 V2000
   -1.3909    4.2996   -2.6847 C   0  0  0  0  0  0  0  0  0  0  0  0
   -1.0792    3.6496   -4.0328 C   0  0  0  0  0  0  0  0  0  0  0  0
   -0.4708    2.3111   -3.8320 N   0  0  0  0  0  0  0  0  0  0  0  0
   -0.7600    1.3398   -4.9366 C   0  0  0  0  0  0  0  0  0  0  0  0
   -2.2785    1.1458   -5.2042 C   0  0  0  0  0  0  0  0  0  0  0  0
   -3.0395    0.7444   -3.9243 C   0  0  0  0  0  0  0  0  0  0  0  0
   -2.1716   -0.0585   -2.9320 C   0  0  0  0  0  0  0  0  0  0  0  0
   -1.1022   -0.9040   -3.6411 C   0  0  0  0  0  0  0  0  0  0  0  0
   -0.2166   -0.0879   -4.6190 C   0  0  0  0  0  0  0  0  0  0  0  0
    1.2662    2.5022   -3.5578 S   0  0  0  0  0  0  0  0  0  0  0  0
    1.6401    3.9440   -3.3414 O   0  0  0  0  0  0  0  0  0  0  0  0
    2.0557    1.9975   -4.7353 O   0  0  0  0  0  0  0  0  0  0  0  0
    1.7414    1.5895   -2.0930 C   0  0  0  0  0  0  0  0  0  0  0  0
    1.0832    2.1726   -0.8417 C   0  0  0  0  0  0  0  0  0  0  0  0
    1.4523    1.3876    0.3344 N   0  0  0  0  0  0  0  0  0  0  0  0
    0.8916    0.0959    0.6032 C   0  0  0  0  0  0  0  0  0  0  0  0
   -0.0686   -0.3322   -0.0944 O   0  0  0  0  0  0  0  0  0  0  0  0
    1.4581   -0.7199    1.6372 N   0  0  0  0  0  0  0  0  0  0  0  0
    0.9030   -1.9754    2.0483 C   0  0  0  0  0  0  0  0  0  0  0  0
   -0.4352   -2.3301    2.0256 C   0  0  0  0  0  0  0  0  0  0  0  0
   -0.4458   -3.6176    2.5215 C   0  0  0  0  0  0  0  0  0  0  0  0
    0.8208   -3.9765    2.8270 N   0  0  0  0  0  0  0  0  0  0  0  0
    1.6491   -2.9845    2.5386 N   0  0  0  0  0  0  0  0  0  0  0  0
    1.2616   -5.2725    3.2727 C   0  0  0  0  0  0  0  0  0  0  0  0
    2.3986   -5.8431    2.6734 C   0  0  0  0  0  0  0  0  0  0  0  0
    2.8411   -7.1125    3.0478 C   0  0  0  0  0  0  0  0  0  0  0  0
    2.1566   -7.8259    4.0335 C   0  0  0  0  0  0  0  0  0  0  0  0
    1.0343   -7.2688    4.6539 C   0  0  0  0  0  0  0  0  0  0  0  0
    0.3948   -7.9738    5.6248 F   0  0  0  0  0  0  0  0  0  0  0  0
    0.5812   -5.9913    4.2823 C   0  0  0  0  0  0  0  0  0  0  0  0
   -0.5376   -5.4170    4.9912 C   0  0  0  0  0  0  0  0  0  0  0  0
   -1.4349   -4.9591    5.5618 N   0  0  0  0  0  0  0  0  0  0  0  0
   -1.8980    5.2734   -2.8489 H   0  0  0  0  0  0  0  0  0  0  0  0
   -0.4691    4.4832   -2.0973 H   0  0  0  0  0  0  0  0  0  0  0  0
   -2.0661    3.6414   -2.0976 H   0  0  0  0  0  0  0  0  0  0  0  0
   -2.0451    3.6118   -4.5613 H   0  0  0  0  0  0  0  0  0  0  0  0
   -0.4297    4.3092   -4.6500 H   0  0  0  0  0  0  0  0  0  0  0  0
   -0.2842    1.7030   -5.8772 H   0  0  0  0  0  0  0  0  0  0  0  0
   -2.4029    0.3318   -5.9538 H   0  0  0  0  0  0  0  0  0  0  0  0
   -2.7558    2.0167   -5.6966 H   0  0  0  0  0  0  0  0  0  0  0  0
   -3.9300    0.1442   -4.2096 H   0  0  0  0  0  0  0  0  0  0  0  0
   -3.4100    1.6597   -3.4127 H   0  0  0  0  0  0  0  0  0  0  0  0
   -2.8214   -0.7211   -2.3204 H   0  0  0  0  0  0  0  0  0  0  0  0
   -1.6699    0.6382   -2.2260 H   0  0  0  0  0  0  0  0  0  0  0  0
   -0.4595   -1.3932   -2.8754 H   0  0  0  0  0  0  0  0  0  0  0  0
   -1.6155   -1.7144   -4.2032 H   0  0  0  0  0  0  0  0  0  0  0  0
   -0.1635   -0.6507   -5.5780 H   0  0  0  0  0  0  0  0  0  0  0  0
    0.8257   -0.0832   -4.2587 H   0  0  0  0  0  0  0  0  0  0  0  0
    1.4501    0.5270   -2.2022 H   0  0  0  0  0  0  0  0  0  0  0  0
    2.8463    1.6382   -1.9860 H   0  0  0  0  0  0  0  0  0  0  0  0
   -0.0224    2.1867   -0.9515 H   0  0  0  0  0  0  0  0  0  0  0  0
    1.4289    3.2199   -0.7012 H   0  0  0  0  0  0  0  0  0  0  0  0
    2.1499    1.7844    1.0038 H   0  0  0  0  0  0  0  0  0  0  0  0
    2.3851   -0.4423    2.0348 H   0  0  0  0  0  0  0  0  0  0  0  0
   -1.2825   -1.7440    1.6979 H   0  0  0  0  0  0  0  0  0  0  0  0
   -1.3151   -4.2550    2.6120 H   0  0  0  0  0  0  0  0  0  0  0  0
    2.9342   -5.3086    1.8995 H   0  0  0  0  0  0  0  0  0  0  0  0
    3.7097   -7.5472    2.5747 H   0  0  0  0  0  0  0  0  0  0  0  0
    2.5025   -8.8097    4.3222 H   0  0  0  0  0  0  0  0  0  0  0  0
  1  2  1  0
  2  3  1  0
  3  4  1  0
  4  5  1  0
  5  6  1  0
  6  7  1  0
  7  8  1  0
  8  9  1  0
  3 10  1  0
 10 11  2  0
 10 12  2  0
 10 13  1  0
 13 14  1  0
 14 15  1  0
 15 16  1  0
 16 17  2  0
 16 18  1  0
 18 19  1  0
 19 20  1  0
 20 21  2  0
 21 22  1  0
 22 23  1  0
 22 24  1  0
 24 25  2  0
 25 26  1  0
 26 27  2  0
 27 28  1  0
 28 29  1  0
 28 30  2  0
 30 31  1  0
 31 32  3  0
  9  4  1  0
 19 23  2  0
 24 30  1  0
  1 33  1  0
  1 34  1  0
  1 35  1  0
  2 36  1  0
  2 37  1  0
  4 38  1  0
  5 39  1  0
  5 40  1  0
  6 41  1  0
  6 42  1  0
  7 43  1  0
  7 44  1  0
  8 45  1  0
  8 46  1  0
  9 47  1  0
  9 48  1  0
 13 49  1  0
 13 50  1  0
 14 51  1  0
 14 52  1  0
 15 53  1  0
 18 54  1  0
 20 55  1  0
 21 56  1  0
 25 57  1  0
 26 58  1  0
 27 59  1  0
M  END
$$$$
