
     RDKit          3D

 54 58  0  0  0  0  0  0  0  0999 V2000
    0.0569   -3.5980    3.2546 O   0  0  0  0  0  0  0  0  0  0  0  0
    0.4953   -2.9037    2.2982 C   0  0  0  0  0  0  0  0  0  0  0  0
   -0.0763   -1.5610    2.0705 C   0  0  0  0  0  0  0  0  0  0  0  0
   -1.4717   -1.3527    2.2132 C   0  0  0  0  0  0  0  0  0  0  0  0
   -2.0341   -0.0783    2.0154 C   0  0  0  0  0  0  0  0  0  0  0  0
   -1.1793    0.9704    1.6642 C   0  0  0  0  0  0  0  0  0  0  0  0
    0.1719    0.7764    1.5716 C   0  0  0  0  0  0  0  0  0  0  0  0
    0.7642   -0.4668    1.7737 C   0  0  0  0  0  0  0  0  0  0  0  0
    0.7826    1.9453    1.3369 N   0  0  0  0  0  0  0  0  0  0  0  0
   -0.2301    2.8405    1.2939 C   0  0  0  0  0  0  0  0  0  0  0  0
   -0.0233    4.0756    1.1614 O   0  0  0  0  0  0  0  0  0  0  0  0
   -1.4668    2.2787    1.4543 N   0  0  0  0  0  0  0  0  0  0  0  0
   -2.8030    2.9151    1.5374 C   0  0  0  0  0  0  0  0  0  0  0  0
   -2.8192    4.4039    1.1947 C   0  0  0  0  0  0  0  0  0  0  0  0
   -4.2573    4.6912    0.8123 C   0  0  0  0  0  0  0  0  0  0  0  0
   -4.7429    3.4281    0.1160 C   0  0  0  0  0  0  0  0  0  0  0  0
   -3.8029    2.2999    0.5471 C   0  0  0  0  0  0  0  0  0  0  0  0
    1.5337   -3.4341    1.4549 N   0  0  0  0  0  0  0  0  0  0  0  0
    2.3809   -4.5428    1.8589 C   0  0  0  0  0  0  0  0  0  0  0  0
    3.0336   -5.0546    0.5810 C   0  0  0  0  0  0  0  0  0  0  0  0
    2.8405   -3.9543   -0.4631 C   0  0  0  0  0  0  0  0  0  0  0  0
    1.6723   -3.1090    0.0438 C   0  0  0  0  0  0  0  0  0  0  0  0
    2.5573   -4.5290   -1.7409 O   0  0  0  0  0  0  0  0  0  0  0  0
    2.4698   -3.8195   -2.9504 C   0  0  0  0  0  0  0  0  0  0  0  0
    2.0673   -4.5153   -4.0992 C   0  0  0  0  0  0  0  0  0  0  0  0
    1.9581   -3.8565   -5.3286 C   0  0  0  0  0  0  0  0  0  0  0  0
    2.2516   -2.4937   -5.4205 C   0  0  0  0  0  0  0  0  0  0  0  0
    2.6594   -1.7893   -4.2833 C   0  0  0  0  0  0  0  0  0  0  0  0
    2.9458   -0.4680   -4.3751 F   0  0  0  0  0  0  0  0  0  0  0  0
    2.7716   -2.4458   -3.0516 C   0  0  0  0  0  0  0  0  0  0  0  0
   -2.1221   -2.1780    2.4763 H   0  0  0  0  0  0  0  0  0  0  0  0
   -3.0926    0.0689    2.1622 H   0  0  0  0  0  0  0  0  0  0  0  0
    1.8408   -0.5736    1.7320 H   0  0  0  0  0  0  0  0  0  0  0  0
    1.8072    2.1298    1.2555 H   0  0  0  0  0  0  0  0  0  0  0  0
   -3.1956    2.7896    2.5732 H   0  0  0  0  0  0  0  0  0  0  0  0
   -2.1932    4.6114    0.2986 H   0  0  0  0  0  0  0  0  0  0  0  0
   -2.4910    5.0305    2.0528 H   0  0  0  0  0  0  0  0  0  0  0  0
   -4.8584    4.8709    1.7311 H   0  0  0  0  0  0  0  0  0  0  0  0
   -4.3304    5.5760    0.1455 H   0  0  0  0  0  0  0  0  0  0  0  0
   -5.7948    3.2073    0.4046 H   0  0  0  0  0  0  0  0  0  0  0  0
   -4.6923    3.5597   -0.9864 H   0  0  0  0  0  0  0  0  0  0  0  0
   -4.3941    1.4858    1.0221 H   0  0  0  0  0  0  0  0  0  0  0  0
   -3.2714    1.8912   -0.3443 H   0  0  0  0  0  0  0  0  0  0  0  0
    1.7782   -5.3492    2.3307 H   0  0  0  0  0  0  0  0  0  0  0  0
    3.1489   -4.1790    2.5749 H   0  0  0  0  0  0  0  0  0  0  0  0
    2.5202   -5.9870    0.2542 H   0  0  0  0  0  0  0  0  0  0  0  0
    4.1122   -5.2751    0.7405 H   0  0  0  0  0  0  0  0  0  0  0  0
    3.7705   -3.3440   -0.5076 H   0  0  0  0  0  0  0  0  0  0  0  0
    0.7301   -3.3652   -0.4888 H   0  0  0  0  0  0  0  0  0  0  0  0
    1.8985   -2.0334   -0.0960 H   0  0  0  0  0  0  0  0  0  0  0  0
    1.8348   -5.5705   -4.0371 H   0  0  0  0  0  0  0  0  0  0  0  0
    1.6442   -4.4022   -6.2096 H   0  0  0  0  0  0  0  0  0  0  0  0
    2.1640   -1.9852   -6.3731 H   0  0  0  0  0  0  0  0  0  0  0  0
    3.0984   -1.8785   -2.1906 H   0  0  0  0  0  0  0  0  0  0  0  0
  1  2  2  0
  2  3  1  0
  3  4  2  0
  4  5  1  0
  5  6  2  0
  6  7  1  0
  7  8  2  0
  7  9  1  0
  9 10  1  0
 10 11  2  0
 10 12  1  0
 12 13  1  0
 13 14  1  0
 14 15  1  0
 15 16  1  0
 16 17  1  0
  2 18  1  0
 18 19  1  0
 19 20  1  0
 20 21  1  0
 21 22  1  0
 21 23  1  0
 23 24  1  0
 24 25  2  0
 25 26  1  0
 26 27  2  0
 27 28  1  0
 28 29  1  0
 28 30  2  0
  3  8  1  0
 12  6  1  0
 17 13  1  0
 22 18  1  0
 24 30  1  0
  4 31  1  0
  5 32  1  0
  8 33  1  0
  9 34  1  0
 13 35  1  0
 14 36  1  0
 14 37  1  0
 15 38  1  0
 15 39  1  0
 16 40  1  0
 16 41  1  0
 17 42  1  0
 17 43  1  0
 19 44  1  0
 19 45  1  0
 20 46  1  0
 20 47  1  0
 21 48  1  0
 22 49  1  0
 22 50  1  0
 25 51  1  0
 26 52  1  0
 27 53  1  0
 30 54  1  0
M  END
$$$$
