
     RDKit          3D

 52 55  0  0  0  0  0  0  0  0999 V2000
   -3.5605    2.4961    1.8976 C   0  0  0  0  0  0  0  0  0  0  0  0
   -3.1947    1.1432    1.2779 C   0  0  0  0  0  0  0  0  0  0  0  0
   -4.4193    0.4924    0.6193 C   0  0  0  0  0  0  0  0  0  0  0  0
   -2.5989    0.2423    2.3316 C   0  0  0  0  0  0  0  0  0  0  0  0
   -3.3271   -0.5148    3.1851 N   0  0  0  0  0  0  0  0  0  0  0  0
   -2.4776   -1.1186    4.0111 N   0  0  0  0  0  0  0  0  0  0  0  0
   -1.2488   -0.7066    3.6520 C   0  0  0  0  0  0  0  0  0  0  0  0
   -0.0426   -1.0812    4.2302 C   0  0  0  0  0  0  0  0  0  0  0  0
    1.1334   -0.5518    3.6750 C   0  0  0  0  0  0  0  0  0  0  0  0
    1.0816    0.3267    2.5665 C   0  0  0  0  0  0  0  0  0  0  0  0
   -0.1827    0.6913    2.0527 C   0  0  0  0  0  0  0  0  0  0  0  0
   -1.2875    0.1431    2.6201 N   0  0  0  0  0  0  0  0  0  0  0  0
    2.3117    0.7761    1.9681 N   0  0  0  0  0  0  0  0  0  0  0  0
    2.4196    1.1738    0.5927 C   0  0  0  0  0  0  0  0  0  0  0  0
    1.7427    2.1500    0.1814 O   0  0  0  0  0  0  0  0  0  0  0  0
    3.3063    0.4781   -0.3158 N   0  0  0  0  0  0  0  0  0  0  0  0
    3.6918    1.1242   -1.5863 C   0  0  0  0  0  0  0  0  0  0  0  0
    3.7102    0.1598   -2.7815 C   0  0  0  0  0  0  0  0  0  0  0  0
    2.3339   -0.3993   -3.2137 C   0  0  0  0  0  0  0  0  0  0  0  0
    1.3117   -0.7110   -2.1261 C   0  0  0  0  0  0  0  0  0  0  0  0
   -0.0063   -0.2447   -2.3087 C   0  0  0  0  0  0  0  0  0  0  0  0
   -1.0276   -0.6203   -1.4349 C   0  0  0  0  0  0  0  0  0  0  0  0
   -0.7551   -1.4657   -0.3627 C   0  0  0  0  0  0  0  0  0  0  0  0
    0.5445   -1.9127   -0.1383 C   0  0  0  0  0  0  0  0  0  0  0  0
    1.5865   -1.5568   -1.0136 C   0  0  0  0  0  0  0  0  0  0  0  0
    2.9903   -1.9943   -0.6741 C   0  0  0  0  0  0  0  0  0  0  0  0
    3.8086   -0.8750    0.0113 C   0  0  0  0  0  0  0  0  0  0  0  0
   -2.6620    2.9503    2.3750 H   0  0  0  0  0  0  0  0  0  0  0  0
   -3.9249    3.1921    1.1119 H   0  0  0  0  0  0  0  0  0  0  0  0
   -4.3543    2.3748    2.6683 H   0  0  0  0  0  0  0  0  0  0  0  0
   -2.4430    1.3161    0.4781 H   0  0  0  0  0  0  0  0  0  0  0  0
   -4.8143    1.1488   -0.1847 H   0  0  0  0  0  0  0  0  0  0  0  0
   -4.1326   -0.4810    0.1604 H   0  0  0  0  0  0  0  0  0  0  0  0
   -5.2259    0.3201    1.3661 H   0  0  0  0  0  0  0  0  0  0  0  0
   -0.0091   -1.7676    5.0648 H   0  0  0  0  0  0  0  0  0  0  0  0
    2.0887   -0.8468    4.0880 H   0  0  0  0  0  0  0  0  0  0  0  0
   -0.2851    1.3659    1.2162 H   0  0  0  0  0  0  0  0  0  0  0  0
    3.2029    0.6006    2.4868 H   0  0  0  0  0  0  0  0  0  0  0  0
    3.0106    1.9627   -1.8415 H   0  0  0  0  0  0  0  0  0  0  0  0
    4.7054    1.5569   -1.4638 H   0  0  0  0  0  0  0  0  0  0  0  0
    4.4389   -0.6556   -2.6107 H   0  0  0  0  0  0  0  0  0  0  0  0
    4.1295    0.7165   -3.6483 H   0  0  0  0  0  0  0  0  0  0  0  0
    2.5028   -1.3282   -3.7960 H   0  0  0  0  0  0  0  0  0  0  0  0
    1.8983    0.3289   -3.9325 H   0  0  0  0  0  0  0  0  0  0  0  0
   -0.2545    0.3953   -3.1476 H   0  0  0  0  0  0  0  0  0  0  0  0
   -2.0356   -0.2600   -1.5955 H   0  0  0  0  0  0  0  0  0  0  0  0
   -1.5496   -1.7610    0.3096 H   0  0  0  0  0  0  0  0  0  0  0  0
    0.7380   -2.5360    0.7261 H   0  0  0  0  0  0  0  0  0  0  0  0
    3.4974   -2.3611   -1.5886 H   0  0  0  0  0  0  0  0  0  0  0  0
    2.9668   -2.8787    0.0002 H   0  0  0  0  0  0  0  0  0  0  0  0
    3.7985   -1.0525    1.1048 H   0  0  0  0  0  0  0  0  0  0  0  0
    4.8751   -0.9622   -0.2898 H   0  0  0  0  0  0  0  0  0  0  0  0
  1  2  1  0
  2  3  1  0
  2  4  1  0
  4  5  2  0
  5  6  1  0
  6  7  2  0
  7  8  1  0
  8  9  2  0
  9 10  1  0
 10 11  2  0
 11 12  1  0
 10 13  1  0
 13 14  1  0
 14 15  2  0
 14 16  1  0
 16 17  1  0
 17 18  1  0
 18 19  1  0
 19 20  1  0
 20 21  2  0
 21 22  1  0
 22 23  2  0
 23 24  1  0
 24 25  2  0
 25 26  1  0
 26 27  1  0
 12  4  1  0
 12  7  1  0
 27 16  1  0
 20 25  1  0
  1 28  1  0
  1 29  1  0
  1 30  1  0
  2 31  1  0
  3 32  1  0
  3 33  1  0
  3 34  1  0
  8 35  1  0
  9 36  1  0
 11 37  1  0
 13 38  1  0
 17 39  1  0
 17 40  1  0
 18 41  1  0
 18 42  1  0
 19 43  1  0
 19 44  1  0
 21 45  1  0
 22 46  1  0
 23 47  1  0
 24 48  1  0
 26 49  1  0
 26 50  1  0
 27 51  1  0
 27 52  1  0
M  END
$$$$
