
     RDKit          3D

 48 51  0  0  0  0  0  0  0  0999 V2000
   -1.3889    2.2719   -0.5037 C   0  0  0  0  0  0  0  0  0  0  0  0
    0.0929    2.3690   -0.1441 C   0  0  0  0  0  0  0  0  0  0  0  0
    0.9429    1.3255   -0.9023 C   0  0  0  0  0  0  0  0  0  0  0  0
    2.4368    1.4768   -0.5897 C   0  0  0  0  0  0  0  0  0  0  0  0
    2.7719    0.9933    0.7962 C   0  0  0  0  0  0  0  0  0  0  0  0
    3.9175    1.4883    1.4402 C   0  0  0  0  0  0  0  0  0  0  0  0
    4.2732    1.0209    2.7072 C   0  0  0  0  0  0  0  0  0  0  0  0
    3.4966    0.0475    3.3371 C   0  0  0  0  0  0  0  0  0  0  0  0
    2.3640   -0.4646    2.7000 C   0  0  0  0  0  0  0  0  0  0  0  0
    1.9960   -0.0067    1.4246 C   0  0  0  0  0  0  0  0  0  0  0  0
    0.7535   -0.5759    0.7804 C   0  0  0  0  0  0  0  0  0  0  0  0
    0.5173   -0.0449   -0.5725 N   0  0  0  0  0  0  0  0  0  0  0  0
   -0.2331   -0.8121   -1.5391 C   0  0  0  0  0  0  0  0  0  0  0  0
    0.0195   -0.6773   -2.7682 O   0  0  0  0  0  0  0  0  0  0  0  0
   -1.2929   -1.8074   -1.1127 C   0  0  0  0  0  0  0  0  0  0  0  0
   -2.6235   -1.5348   -1.8668 C   0  0  0  0  0  0  0  0  0  0  0  0
   -3.6280   -2.7003   -1.8484 C   0  0  0  0  0  0  0  0  0  0  0  0
   -3.7358   -3.3330   -0.4976 C   0  0  0  0  0  0  0  0  0  0  0  0
   -4.8620   -3.3319    0.2399 N   0  0  0  0  0  0  0  0  0  0  0  0
   -4.5870   -3.9827    1.3610 N   0  0  0  0  0  0  0  0  0  0  0  0
   -3.2983   -4.3685    1.2911 C   0  0  0  0  0  0  0  0  0  0  0  0
   -2.7297   -3.9654    0.1405 N   0  0  0  0  0  0  0  0  0  0  0  0
   -1.3588   -4.2613   -0.2970 C   0  0  0  0  0  0  0  0  0  0  0  0
   -0.7836   -3.2536   -1.3176 C   0  0  0  0  0  0  0  0  0  0  0  0
   -1.5287    2.3607   -1.6020 H   0  0  0  0  0  0  0  0  0  0  0  0
   -1.8104    1.3055   -0.1558 H   0  0  0  0  0  0  0  0  0  0  0  0
   -1.9456    3.0942   -0.0070 H   0  0  0  0  0  0  0  0  0  0  0  0
    0.2057    2.2439    0.9542 H   0  0  0  0  0  0  0  0  0  0  0  0
    0.4483    3.3894   -0.4061 H   0  0  0  0  0  0  0  0  0  0  0  0
    0.8202    1.5233   -1.9906 H   0  0  0  0  0  0  0  0  0  0  0  0
    3.0197    0.8716   -1.3174 H   0  0  0  0  0  0  0  0  0  0  0  0
    2.7405    2.5394   -0.7170 H   0  0  0  0  0  0  0  0  0  0  0  0
    4.5359    2.2366    0.9600 H   0  0  0  0  0  0  0  0  0  0  0  0
    5.1543    1.4114    3.1999 H   0  0  0  0  0  0  0  0  0  0  0  0
    3.7738   -0.3129    4.3193 H   0  0  0  0  0  0  0  0  0  0  0  0
    1.7715   -1.2207    3.2007 H   0  0  0  0  0  0  0  0  0  0  0  0
   -0.1238   -0.3420    1.4208 H   0  0  0  0  0  0  0  0  0  0  0  0
    0.8714   -1.6803    0.7325 H   0  0  0  0  0  0  0  0  0  0  0  0
   -1.4983   -1.6505   -0.0324 H   0  0  0  0  0  0  0  0  0  0  0  0
   -2.4235   -1.2950   -2.9339 H   0  0  0  0  0  0  0  0  0  0  0  0
   -3.1057   -0.6381   -1.4188 H   0  0  0  0  0  0  0  0  0  0  0  0
   -4.6247   -2.3225   -2.1634 H   0  0  0  0  0  0  0  0  0  0  0  0
   -3.3289   -3.4762   -2.5844 H   0  0  0  0  0  0  0  0  0  0  0  0
   -2.7914   -4.9344    2.0620 H   0  0  0  0  0  0  0  0  0  0  0  0
   -1.3296   -5.2816   -0.7355 H   0  0  0  0  0  0  0  0  0  0  0  0
   -0.6960   -4.2658    0.5965 H   0  0  0  0  0  0  0  0  0  0  0  0
    0.3247   -3.2853   -1.2188 H   0  0  0  0  0  0  0  0  0  0  0  0
   -1.0011   -3.5943   -2.3530 H   0  0  0  0  0  0  0  0  0  0  0  0
  1  2  1  0
  2  3  1  0
  3  4  1  0
  4  5  1  0
  5  6  2  0
  6  7  1  0
  7  8  2  0
  8  9  1  0
  9 10  2  0
 10 11  1  0
 11 12  1  0
 12 13  1  0
 13 14  2  0
 13 15  1  0
 15 16  1  0
 16 17  1  0
 17 18  1  0
 18 19  2  0
 19 20  1  0
 20 21  2  0
 21 22  1  0
 22 23  1  0
 23 24  1  0
 12  3  1  0
  5 10  1  0
 24 15  1  0
 22 18  1  0
  1 25  1  0
  1 26  1  0
  1 27  1  0
  2 28  1  0
  2 29  1  0
  3 30  1  0
  4 31  1  0
  4 32  1  0
  6 33  1  0
  7 34  1  0
  8 35  1  0
  9 36  1  0
 11 37  1  0
 11 38  1  0
 15 39  1  0
 16 40  1  0
 16 41  1  0
 17 42  1  0
 17 43  1  0
 21 44  1  0
 23 45  1  0
 23 46  1  0
 24 47  1  0
 24 48  1  0
M  END
$$$$
