
     RDKit          3D

 45 47  0  0  0  0  0  0  0  0999 V2000
   -2.6473   -4.0883   -1.1953 C   0  0  0  0  0  0  0  0  0  0  0  0
   -2.2662   -2.7568   -0.5387 C   0  0  0  0  0  0  0  0  0  0  0  0
   -0.8731   -2.7686    0.0412 C   0  0  0  0  0  0  0  0  0  0  0  0
   -0.2135   -3.8417    0.1062 O   0  0  0  0  0  0  0  0  0  0  0  0
   -0.3187   -1.5401    0.5411 N   0  0  0  0  0  0  0  0  0  0  0  0
    1.1196   -1.2127    0.6210 C   0  0  0  0  0  0  0  0  0  0  0  0
    1.3703    0.2965    0.8876 C   0  0  0  0  0  0  0  0  0  0  0  0
    0.6952    1.1952   -0.1263 C   0  0  0  0  0  0  0  0  0  0  0  0
   -0.5632    1.7601    0.1517 C   0  0  0  0  0  0  0  0  0  0  0  0
   -1.1977    2.5745   -0.7905 C   0  0  0  0  0  0  0  0  0  0  0  0
   -0.5802    2.8414   -2.0140 C   0  0  0  0  0  0  0  0  0  0  0  0
    0.6755    2.2984   -2.2951 C   0  0  0  0  0  0  0  0  0  0  0  0
    1.3138    1.4825   -1.3560 C   0  0  0  0  0  0  0  0  0  0  0  0
    1.9651   -1.7884   -0.5279 C   0  0  0  0  0  0  0  0  0  0  0  0
    2.6851   -2.6963    0.4634 C   0  0  0  0  0  0  0  0  0  0  0  0
    1.8631   -2.1179    1.6104 C   0  0  0  0  0  0  0  0  0  0  0  0
   -2.3730   -1.6747   -1.5198 N   0  0  0  0  0  0  0  0  0  0  0  0
   -3.2519   -0.6544   -1.4829 C   0  0  0  0  0  0  0  0  0  0  0  0
   -3.0217    0.1594   -2.5715 C   0  0  0  0  0  0  0  0  0  0  0  0
   -1.9574   -0.4340   -3.2276 C   0  0  0  0  0  0  0  0  0  0  0  0
   -1.5873   -1.5551   -2.5794 N   0  0  0  0  0  0  0  0  0  0  0  0
   -1.3516    0.0151   -4.5190 C   0  0  0  0  0  0  0  0  0  0  0  0
    0.0137   -0.2020   -4.4927 F   0  0  0  0  0  0  0  0  0  0  0  0
   -1.9068   -0.7051   -5.5595 F   0  0  0  0  0  0  0  0  0  0  0  0
   -1.5891    1.3626   -4.7217 F   0  0  0  0  0  0  0  0  0  0  0  0
   -1.9412   -4.3363   -2.0168 H   0  0  0  0  0  0  0  0  0  0  0  0
   -2.6329   -4.9059   -0.4432 H   0  0  0  0  0  0  0  0  0  0  0  0
   -3.6733   -4.0198   -1.6155 H   0  0  0  0  0  0  0  0  0  0  0  0
   -2.9769   -2.5734    0.2975 H   0  0  0  0  0  0  0  0  0  0  0  0
   -1.0094   -0.8070    0.8126 H   0  0  0  0  0  0  0  0  0  0  0  0
    0.9996    0.5438    1.9067 H   0  0  0  0  0  0  0  0  0  0  0  0
    2.4625    0.5090    0.8950 H   0  0  0  0  0  0  0  0  0  0  0  0
   -1.0545    1.5710    1.0979 H   0  0  0  0  0  0  0  0  0  0  0  0
   -2.1696    2.9978   -0.5722 H   0  0  0  0  0  0  0  0  0  0  0  0
   -1.0735    3.4709   -2.7430 H   0  0  0  0  0  0  0  0  0  0  0  0
    1.1560    2.5116   -3.2412 H   0  0  0  0  0  0  0  0  0  0  0  0
    2.2949    1.0916   -1.5864 H   0  0  0  0  0  0  0  0  0  0  0  0
    2.6747   -1.0672   -0.9824 H   0  0  0  0  0  0  0  0  0  0  0  0
    1.3917   -2.3517   -1.2941 H   0  0  0  0  0  0  0  0  0  0  0  0
    2.4779   -3.7740    0.2871 H   0  0  0  0  0  0  0  0  0  0  0  0
    3.7674   -2.4569    0.5535 H   0  0  0  0  0  0  0  0  0  0  0  0
    2.4987   -1.5657    2.3377 H   0  0  0  0  0  0  0  0  0  0  0  0
    1.2179   -2.8802    2.0986 H   0  0  0  0  0  0  0  0  0  0  0  0
   -4.0075   -0.5109   -0.7215 H   0  0  0  0  0  0  0  0  0  0  0  0
   -3.5571    1.0581   -2.8473 H   0  0  0  0  0  0  0  0  0  0  0  0
  1  2  1  0
  2  3  1  0
  3  4  2  0
  3  5  1  0
  5  6  1  0
  6  7  1  0
  7  8  1  0
  8  9  2  0
  9 10  1  0
 10 11  2  0
 11 12  1  0
 12 13  2  0
  6 14  1  0
 14 15  1  0
 15 16  1  0
  2 17  1  0
 17 18  1  0
 18 19  2  0
 19 20  1  0
 20 21  2  0
 20 22  1  0
 22 23  1  0
 22 24  1  0
 22 25  1  0
 16  6  1  0
  8 13  1  0
 21 17  1  0
  1 26  1  0
  1 27  1  0
  1 28  1  0
  2 29  1  0
  5 30  1  0
  7 31  1  0
  7 32  1  0
  9 33  1  0
 10 34  1  0
 11 35  1  0
 12 36  1  0
 13 37  1  0
 14 38  1  0
 14 39  1  0
 15 40  1  0
 15 41  1  0
 16 42  1  0
 16 43  1  0
 18 44  1  0
 19 45  1  0
M  END
$$$$
