
     RDKit          3D

 44 47  0  0  0  0  0  0  0  0999 V2000
   -2.2546    0.5777    4.4260 O   0  0  0  0  0  0  0  0  0  0  0  0
   -1.5482    0.4752    3.3877 C   0  0  0  0  0  0  0  0  0  0  0  0
   -0.5933    1.5093    2.9380 C   0  0  0  0  0  0  0  0  0  0  0  0
   -0.1346    0.9794    1.5628 C   0  0  0  0  0  0  0  0  0  0  0  0
    1.3035    1.1801    1.3416 N   0  0  0  0  0  0  0  0  0  0  0  0
    1.9024    1.0580    0.0453 C   0  0  0  0  0  0  0  0  0  0  0  0
    3.2198    1.3503   -0.1176 N   0  0  0  0  0  0  0  0  0  0  0  0
    3.8157    1.2417   -1.3329 C   0  0  0  0  0  0  0  0  0  0  0  0
    3.0752    0.8218   -2.4363 C   0  0  0  0  0  0  0  0  0  0  0  0
    1.7278    0.5106   -2.2566 C   0  0  0  0  0  0  0  0  0  0  0  0
    1.1675    0.6441   -1.0231 N   0  0  0  0  0  0  0  0  0  0  0  0
    0.9660    0.1024   -3.3581 O   0  0  0  0  0  0  0  0  0  0  0  0
   -0.2618   -0.5697   -3.2806 C   0  0  0  0  0  0  0  0  0  0  0  0
   -1.2139   -0.3488   -4.2849 C   0  0  0  0  0  0  0  0  0  0  0  0
   -2.4473   -1.0077   -4.2481 C   0  0  0  0  0  0  0  0  0  0  0  0
   -2.7322   -1.9024   -3.2124 C   0  0  0  0  0  0  0  0  0  0  0  0
   -1.7798   -2.1475   -2.2185 C   0  0  0  0  0  0  0  0  0  0  0  0
   -0.5457   -1.4899   -2.2525 C   0  0  0  0  0  0  0  0  0  0  0  0
   -0.5717   -0.5152    1.4986 C   0  0  0  0  0  0  0  0  0  0  0  0
    0.5577   -1.5413    1.7205 C   0  0  0  0  0  0  0  0  0  0  0  0
    0.0236   -2.9845    1.9089 C   0  0  0  0  0  0  0  0  0  0  0  0
   -1.5064   -3.0851    2.0766 C   0  0  0  0  0  0  0  0  0  0  0  0
   -2.0525   -1.9825    2.9906 C   0  0  0  0  0  0  0  0  0  0  0  0
   -1.5467   -0.6767    2.5668 N   0  0  0  0  0  0  0  0  0  0  0  0
   -1.0935    2.4971    2.8450 H   0  0  0  0  0  0  0  0  0  0  0  0
    0.2407    1.5675    3.6691 H   0  0  0  0  0  0  0  0  0  0  0  0
   -0.6991    1.5438    0.7859 H   0  0  0  0  0  0  0  0  0  0  0  0
    1.9121    1.5031    2.1263 H   0  0  0  0  0  0  0  0  0  0  0  0
    4.8642    1.4825   -1.4424 H   0  0  0  0  0  0  0  0  0  0  0  0
    3.5400    0.7346   -3.4097 H   0  0  0  0  0  0  0  0  0  0  0  0
   -0.9997    0.3407   -5.0917 H   0  0  0  0  0  0  0  0  0  0  0  0
   -3.1806   -0.8267   -5.0242 H   0  0  0  0  0  0  0  0  0  0  0  0
   -3.6865   -2.4142   -3.1859 H   0  0  0  0  0  0  0  0  0  0  0  0
   -1.9938   -2.8571   -1.4289 H   0  0  0  0  0  0  0  0  0  0  0  0
    0.1933   -1.7225   -1.4969 H   0  0  0  0  0  0  0  0  0  0  0  0
   -1.0606   -0.7160    0.5205 H   0  0  0  0  0  0  0  0  0  0  0  0
    1.2589   -1.5252    0.8598 H   0  0  0  0  0  0  0  0  0  0  0  0
    1.1322   -1.2532    2.6287 H   0  0  0  0  0  0  0  0  0  0  0  0
    0.5125   -3.4364    2.7992 H   0  0  0  0  0  0  0  0  0  0  0  0
    0.3182   -3.6021    1.0321 H   0  0  0  0  0  0  0  0  0  0  0  0
   -1.7722   -4.0814    2.4918 H   0  0  0  0  0  0  0  0  0  0  0  0
   -1.9886   -2.9971    1.0796 H   0  0  0  0  0  0  0  0  0  0  0  0
   -1.7314   -2.1843    4.0357 H   0  0  0  0  0  0  0  0  0  0  0  0
   -3.1619   -1.9801    2.9522 H   0  0  0  0  0  0  0  0  0  0  0  0
  1  2  2  0
  2  3  1  0
  3  4  1  0
  4  5  1  0
  5  6  1  0
  6  7  2  0
  7  8  1  0
  8  9  2  0
  9 10  1  0
 10 11  2  0
 10 12  1  0
 12 13  1  0
 13 14  2  0
 14 15  1  0
 15 16  2  0
 16 17  1  0
 17 18  2  0
  4 19  1  0
 19 20  1  0
 20 21  1  0
 21 22  1  0
 22 23  1  0
 23 24  1  0
 24  2  1  0
  6 11  1  0
 13 18  1  0
 24 19  1  0
  3 25  1  0
  3 26  1  0
  4 27  1  0
  5 28  1  0
  8 29  1  0
  9 30  1  0
 14 31  1  0
 15 32  1  0
 16 33  1  0
 17 34  1  0
 18 35  1  0
 19 36  1  0
 20 37  1  0
 20 38  1  0
 21 39  1  0
 21 40  1  0
 22 41  1  0
 22 42  1  0
 23 43  1  0
 23 44  1  0
M  END
$$$$
