
     RDKit          3D

 40 42  0  0  0  0  0  0  0  0999 V2000
   -1.6674   -0.5848   -2.5355 O   0  0  0  0  0  0  0  0  0  0  0  0
   -0.8721   -0.5542   -1.5563 C   0  0  0  0  0  0  0  0  0  0  0  0
    0.3032   -1.3823   -1.5681 N   0  0  0  0  0  0  0  0  0  0  0  0
    0.8967   -1.9083   -2.7681 C   0  0  0  0  0  0  0  0  0  0  0  0
    1.5762   -3.1340   -2.7192 C   0  0  0  0  0  0  0  0  0  0  0  0
    2.1768   -3.6552   -3.8669 C   0  0  0  0  0  0  0  0  0  0  0  0
    2.1160   -2.9515   -5.0712 C   0  0  0  0  0  0  0  0  0  0  0  0
    1.4625   -1.7160   -5.1397 C   0  0  0  0  0  0  0  0  0  0  0  0
    0.8582   -1.1919   -3.9793 C   0  0  0  0  0  0  0  0  0  0  0  0
    1.4427   -1.0433   -6.3715 O   0  0  0  0  0  0  0  0  0  0  0  0
    0.7942    0.2034   -6.6068 C   0  0  0  0  0  0  0  0  0  0  0  0
    1.0445    0.6046   -7.9047 F   0  0  0  0  0  0  0  0  0  0  0  0
   -0.5714    0.0655   -6.4344 F   0  0  0  0  0  0  0  0  0  0  0  0
   -1.1893    0.2987   -0.3850 C   0  0  0  0  0  0  0  0  0  0  0  0
   -0.1909    0.6614    0.5366 C   0  0  0  0  0  0  0  0  0  0  0  0
   -0.4979    1.4704    1.6347 C   0  0  0  0  0  0  0  0  0  0  0  0
   -1.8114    1.9252    1.8384 C   0  0  0  0  0  0  0  0  0  0  0  0
   -2.7998    1.5940    0.9022 C   0  0  0  0  0  0  0  0  0  0  0  0
   -2.4951    0.7853   -0.1962 C   0  0  0  0  0  0  0  0  0  0  0  0
   -2.1460    2.7783    2.9462 N   0  0  0  0  0  0  0  0  0  0  0  0
   -1.5714    2.6629    4.2559 C   0  0  0  0  0  0  0  0  0  0  0  0
   -0.8595    1.5577    4.6116 N   0  0  0  0  0  0  0  0  0  0  0  0
   -0.3382    1.4305    5.8593 C   0  0  0  0  0  0  0  0  0  0  0  0
   -0.5382    2.4377    6.8017 C   0  0  0  0  0  0  0  0  0  0  0  0
   -1.2803    3.5571    6.4288 C   0  0  0  0  0  0  0  0  0  0  0  0
   -1.7848    3.6472    5.1706 N   0  0  0  0  0  0  0  0  0  0  0  0
    0.6785   -1.7151   -0.6514 H   0  0  0  0  0  0  0  0  0  0  0  0
    1.6316   -3.6902   -1.7918 H   0  0  0  0  0  0  0  0  0  0  0  0
    2.6914   -4.6064   -3.8226 H   0  0  0  0  0  0  0  0  0  0  0  0
    2.5851   -3.3644   -5.9553 H   0  0  0  0  0  0  0  0  0  0  0  0
    0.3816   -0.2229   -4.0071 H   0  0  0  0  0  0  0  0  0  0  0  0
    1.1874    0.9772   -5.9142 H   0  0  0  0  0  0  0  0  0  0  0  0
    0.8349    0.3459    0.3987 H   0  0  0  0  0  0  0  0  0  0  0  0
    0.2986    1.7638    2.3056 H   0  0  0  0  0  0  0  0  0  0  0  0
   -3.8126    1.9552    1.0308 H   0  0  0  0  0  0  0  0  0  0  0  0
   -3.2844    0.5350   -0.8942 H   0  0  0  0  0  0  0  0  0  0  0  0
   -2.9137    3.4757    2.8163 H   0  0  0  0  0  0  0  0  0  0  0  0
    0.2282    0.5463    6.1194 H   0  0  0  0  0  0  0  0  0  0  0  0
   -0.1305    2.3508    7.8005 H   0  0  0  0  0  0  0  0  0  0  0  0
   -1.4582    4.3533    7.1392 H   0  0  0  0  0  0  0  0  0  0  0  0
  1  2  2  0
  2  3  1  0
  3  4  1  0
  4  5  2  0
  5  6  1  0
  6  7  2  0
  7  8  1  0
  8  9  2  0
  8 10  1  0
 10 11  1  0
 11 12  1  0
 11 13  1  0
  2 14  1  0
 14 15  2  0
 15 16  1  0
 16 17  2  0
 17 18  1  0
 18 19  2  0
 17 20  1  0
 20 21  1  0
 21 22  2  0
 22 23  1  0
 23 24  2  0
 24 25  1  0
 25 26  2  0
  4  9  1  0
 14 19  1  0
 21 26  1  0
  3 27  1  0
  5 28  1  0
  6 29  1  0
  7 30  1  0
  9 31  1  0
 11 32  1  0
 15 33  1  0
 16 34  1  0
 18 35  1  0
 19 36  1  0
 20 37  1  0
 23 38  1  0
 24 39  1  0
 25 40  1  0
M  END
$$$$
