
     RDKit          3D

 39 40  0  0  0  0  0  0  0  0999 V2000
   -4.4976   -2.3440   -1.4057 C   0  0  0  0  0  0  0  0  0  0  0  0
   -3.6628   -3.0853   -0.3555 C   0  0  0  0  0  0  0  0  0  0  0  0
   -2.5817   -2.2239    0.3623 C   0  0  0  0  0  0  0  0  0  0  0  0
   -3.2415   -1.0461    1.1066 C   0  0  0  0  0  0  0  0  0  0  0  0
   -1.9494   -3.0293    1.3310 O   0  0  0  0  0  0  0  0  0  0  0  0
   -1.5265   -1.6972   -0.6524 C   0  0  0  0  0  0  0  0  0  0  0  0
   -0.3421   -1.0677    0.0215 C   0  0  0  0  0  0  0  0  0  0  0  0
   -0.1660    0.2695    0.3015 C   0  0  0  0  0  0  0  0  0  0  0  0
    1.0118    0.3597    0.9411 N   0  0  0  0  0  0  0  0  0  0  0  0
    1.6709    1.5821    1.3847 C   0  0  0  0  0  0  0  0  0  0  0  0
    2.4452    2.1872    0.2455 C   0  0  0  0  0  0  0  0  0  0  0  0
    1.8280    3.1136   -0.6077 C   0  0  0  0  0  0  0  0  0  0  0  0
    2.5414    3.6414   -1.6935 C   0  0  0  0  0  0  0  0  0  0  0  0
    3.8223    3.2372   -1.9164 N   0  0  0  0  0  0  0  0  0  0  0  0
    4.4401    2.3312   -1.1138 C   0  0  0  0  0  0  0  0  0  0  0  0
    3.7628    1.7835   -0.0222 C   0  0  0  0  0  0  0  0  0  0  0  0
    4.3848    0.8667    0.7620 F   0  0  0  0  0  0  0  0  0  0  0  0
    1.8941    4.6328   -2.6154 C   0  0  0  0  0  0  0  0  0  0  0  0
    2.7876    5.0496   -3.5867 F   0  0  0  0  0  0  0  0  0  0  0  0
    1.4734    5.7346   -1.8932 F   0  0  0  0  0  0  0  0  0  0  0  0
    0.8029    4.0486   -3.2318 F   0  0  0  0  0  0  0  0  0  0  0  0
    1.5347   -0.8524    1.0378 N   0  0  0  0  0  0  0  0  0  0  0  0
    0.7234   -1.7477    0.4923 N   0  0  0  0  0  0  0  0  0  0  0  0
   -3.8583   -1.9582   -2.2256 H   0  0  0  0  0  0  0  0  0  0  0  0
   -5.2301   -3.0500   -1.8509 H   0  0  0  0  0  0  0  0  0  0  0  0
   -5.0674   -1.5098   -0.9484 H   0  0  0  0  0  0  0  0  0  0  0  0
   -3.1723   -3.9495   -0.8548 H   0  0  0  0  0  0  0  0  0  0  0  0
   -4.3559   -3.5068    0.4054 H   0  0  0  0  0  0  0  0  0  0  0  0
   -3.6156   -0.2774    0.3981 H   0  0  0  0  0  0  0  0  0  0  0  0
   -4.0894   -1.4049    1.7288 H   0  0  0  0  0  0  0  0  0  0  0  0
   -2.5097   -0.5583    1.7848 H   0  0  0  0  0  0  0  0  0  0  0  0
   -1.4932   -3.7758    0.8600 H   0  0  0  0  0  0  0  0  0  0  0  0
   -1.9820   -0.9486   -1.3351 H   0  0  0  0  0  0  0  0  0  0  0  0
   -1.1606   -2.5365   -1.2831 H   0  0  0  0  0  0  0  0  0  0  0  0
   -0.8243    1.0949    0.0624 H   0  0  0  0  0  0  0  0  0  0  0  0
    2.3480    1.3547    2.2364 H   0  0  0  0  0  0  0  0  0  0  0  0
    0.9109    2.3015    1.7618 H   0  0  0  0  0  0  0  0  0  0  0  0
    0.8030    3.4186   -0.4318 H   0  0  0  0  0  0  0  0  0  0  0  0
    5.4573    2.0315   -1.3275 H   0  0  0  0  0  0  0  0  0  0  0  0
  1  2  1  0
  2  3  1  0
  3  4  1  0
  3  5  1  0
  3  6  1  0
  6  7  1  0
  7  8  2  0
  8  9  1  0
  9 10  1  0
 10 11  1  0
 11 12  2  0
 12 13  1  0
 13 14  2  0
 14 15  1  0
 15 16  2  0
 16 17  1  0
 13 18  1  0
 18 19  1  0
 18 20  1  0
 18 21  1  0
  9 22  1  0
 22 23  2  0
 23  7  1  0
 16 11  1  0
  1 24  1  0
  1 25  1  0
  1 26  1  0
  2 27  1  0
  2 28  1  0
  4 29  1  0
  4 30  1  0
  4 31  1  0
  5 32  1  0
  6 33  1  0
  6 34  1  0
  8 35  1  0
 10 36  1  0
 10 37  1  0
 12 38  1  0
 15 39  1  0
M  END
$$$$
