
     RDKit          3D

 51 56  0  0  0  0  0  0  0  0999 V2000
    1.4607    4.1295    3.1693 O   0  0  0  0  0  0  0  0  0  0  0  0
    0.8577    3.4562    2.2912 C   0  0  0  0  0  0  0  0  0  0  0  0
    0.1820    2.3137    2.6234 N   0  0  0  0  0  0  0  0  0  0  0  0
   -0.4873    1.5767    1.6715 C   0  0  0  0  0  0  0  0  0  0  0  0
   -1.1943    0.3086    2.0573 C   0  0  0  0  0  0  0  0  0  0  0  0
   -0.2257   -0.7670    2.3582 N   0  0  0  0  0  0  0  0  0  0  0  0
   -0.8935   -1.9310    3.0009 C   0  0  0  0  0  0  0  0  0  0  0  0
   -1.2098   -3.0530    2.0033 C   0  0  0  0  0  0  0  0  0  0  0  0
    0.0870   -3.6052    1.3723 C   0  0  0  0  0  0  0  0  0  0  0  0
    1.1878   -2.5239    1.2594 C   0  0  0  0  0  0  0  0  0  0  0  0
    0.5810   -1.1187    1.1582 C   0  0  0  0  0  0  0  0  0  0  0  0
   -0.2097   -4.2252    0.0318 C   0  0  0  0  0  0  0  0  0  0  0  0
   -0.5892   -3.4999   -1.0560 N   0  0  0  0  0  0  0  0  0  0  0  0
   -0.7608   -4.4446   -1.9973 C   0  0  0  0  0  0  0  0  0  0  0  0
   -1.1516   -4.2667   -3.3223 C   0  0  0  0  0  0  0  0  0  0  0  0
   -1.2678   -5.4151   -4.1295 C   0  0  0  0  0  0  0  0  0  0  0  0
   -0.9936   -6.6962   -3.5962 C   0  0  0  0  0  0  0  0  0  0  0  0
   -0.6011   -6.8392   -2.2515 C   0  0  0  0  0  0  0  0  0  0  0  0
   -0.4969   -5.6800   -1.4856 C   0  0  0  0  0  0  0  0  0  0  0  0
   -0.1477   -5.5609   -0.1992 N   0  0  0  0  0  0  0  0  0  0  0  0
   -0.4773    1.9685    0.3600 N   0  0  0  0  0  0  0  0  0  0  0  0
    0.1942    3.0972    0.0375 C   0  0  0  0  0  0  0  0  0  0  0  0
    0.3715    3.7158   -1.1700 C   0  0  0  0  0  0  0  0  0  0  0  0
   -0.0642    3.4160   -2.4569 C   0  0  0  0  0  0  0  0  0  0  0  0
    0.3142    4.2945   -3.4891 C   0  0  0  0  0  0  0  0  0  0  0  0
    1.1079    5.4317   -3.2111 C   0  0  0  0  0  0  0  0  0  0  0  0
    1.5329    5.7061   -1.8962 C   0  0  0  0  0  0  0  0  0  0  0  0
    1.1466    4.8247   -0.8893 C   0  0  0  0  0  0  0  0  0  0  0  0
    1.4350    4.8961    0.3993 O   0  0  0  0  0  0  0  0  0  0  0  0
    0.8599    3.8506    0.9621 C   0  0  0  0  0  0  0  0  0  0  0  0
    0.1763    1.9964    3.6196 H   0  0  0  0  0  0  0  0  0  0  0  0
   -1.8944   -0.0063    1.2510 H   0  0  0  0  0  0  0  0  0  0  0  0
   -1.8059    0.5384    2.9572 H   0  0  0  0  0  0  0  0  0  0  0  0
   -0.2201   -2.3319    3.7893 H   0  0  0  0  0  0  0  0  0  0  0  0
   -1.8312   -1.6388    3.5241 H   0  0  0  0  0  0  0  0  0  0  0  0
   -1.8911   -2.6438    1.2245 H   0  0  0  0  0  0  0  0  0  0  0  0
   -1.7494   -3.8739    2.5233 H   0  0  0  0  0  0  0  0  0  0  0  0
    0.4788   -4.4043    2.0411 H   0  0  0  0  0  0  0  0  0  0  0  0
    1.8334   -2.5606    2.1647 H   0  0  0  0  0  0  0  0  0  0  0  0
    1.8485   -2.7125    0.3842 H   0  0  0  0  0  0  0  0  0  0  0  0
   -0.0312   -1.0639    0.2293 H   0  0  0  0  0  0  0  0  0  0  0  0
    1.4118   -0.3875    1.0558 H   0  0  0  0  0  0  0  0  0  0  0  0
   -1.3587   -3.2808   -3.7181 H   0  0  0  0  0  0  0  0  0  0  0  0
   -1.5687   -5.3165   -5.1644 H   0  0  0  0  0  0  0  0  0  0  0  0
   -1.0862   -7.5721   -4.2253 H   0  0  0  0  0  0  0  0  0  0  0  0
   -0.3888   -7.8128   -1.8295 H   0  0  0  0  0  0  0  0  0  0  0  0
    0.1095   -6.3212    0.4694 H   0  0  0  0  0  0  0  0  0  0  0  0
   -0.6708    2.5422   -2.6574 H   0  0  0  0  0  0  0  0  0  0  0  0
   -0.0052    4.0981   -4.5043 H   0  0  0  0  0  0  0  0  0  0  0  0
    1.3914    6.0977   -4.0155 H   0  0  0  0  0  0  0  0  0  0  0  0
    2.1407    6.5738   -1.6754 H   0  0  0  0  0  0  0  0  0  0  0  0
  1  2  2  0
  2  3  1  0
  3  4  1  0
  4  5  1  0
  5  6  1  0
  6  7  1  0
  7  8  1  0
  8  9  1  0
  9 10  1  0
 10 11  1  0
  9 12  1  0
 12 13  2  0
 13 14  1  0
 14 15  2  0
 15 16  1  0
 16 17  2  0
 17 18  1  0
 18 19  2  0
 19 20  1  0
  4 21  2  0
 21 22  1  0
 22 23  1  0
 23 24  2  0
 24 25  1  0
 25 26  2  0
 26 27  1  0
 27 28  2  0
 28 29  1  0
 29 30  1  0
 30  2  1  0
 11  6  1  0
 20 12  1  0
 14 19  1  0
 22 30  2  0
 28 23  1  0
  3 31  1  0
  5 32  1  0
  5 33  1  0
  7 34  1  0
  7 35  1  0
  8 36  1  0
  8 37  1  0
  9 38  1  0
 10 39  1  0
 10 40  1  0
 11 41  1  0
 11 42  1  0
 15 43  1  0
 16 44  1  0
 17 45  1  0
 18 46  1  0
 20 47  1  0
 24 48  1  0
 25 49  1  0
 26 50  1  0
 27 51  1  0
M  END
$$$$
