
     RDKit          3D

 59 61  0  0  0  0  0  0  0  0999 V2000
    2.2105   -0.9733    0.3804 C   0  0  0  0  0  0  0  0  0  0  0  0
    2.2823   -0.0904   -0.8666 C   0  0  0  0  0  0  0  0  0  0  0  0
    2.8512    1.2234   -0.4969 N   0  0  0  0  0  0  0  0  0  0  0  0
    4.1423    1.6138   -1.1216 C   0  0  0  0  0  0  0  0  0  0  0  0
    5.3425    0.8743   -0.4754 C   0  0  0  0  0  0  0  0  0  0  0  0
    5.7768   -0.3906   -1.2215 C   0  0  0  0  0  0  0  0  0  0  0  0
    6.0298   -0.0882   -2.6964 C   0  0  0  0  0  0  0  0  0  0  0  0
    4.7476    0.3921   -3.3766 C   0  0  0  0  0  0  0  0  0  0  0  0
    4.1397    1.6240   -2.6828 C   0  0  0  0  0  0  0  0  0  0  0  0
    1.6798    2.5337   -0.4724 S   0  0  0  0  0  0  0  0  0  0  0  0
    1.9365    3.4944   -1.6017 O   0  0  0  0  0  0  0  0  0  0  0  0
    0.2705    2.0194   -0.5971 O   0  0  0  0  0  0  0  0  0  0  0  0
    1.8648    3.4265    1.0712 C   0  0  0  0  0  0  0  0  0  0  0  0
    1.2301    2.6891    2.2555 C   0  0  0  0  0  0  0  0  0  0  0  0
   -0.2254    2.6262    2.1101 N   0  0  0  0  0  0  0  0  0  0  0  0
   -0.9674    1.4032    2.2050 C   0  0  0  0  0  0  0  0  0  0  0  0
   -0.4368    0.3788    2.7155 O   0  0  0  0  0  0  0  0  0  0  0  0
   -2.3145    1.3547    1.7150 N   0  0  0  0  0  0  0  0  0  0  0  0
   -3.0566    0.1482    1.4748 C   0  0  0  0  0  0  0  0  0  0  0  0
   -2.5513   -1.1420    1.3924 C   0  0  0  0  0  0  0  0  0  0  0  0
   -3.6590   -1.9190    1.1215 C   0  0  0  0  0  0  0  0  0  0  0  0
   -4.7438   -1.1160    1.0439 N   0  0  0  0  0  0  0  0  0  0  0  0
   -4.3848    0.1420    1.2543 N   0  0  0  0  0  0  0  0  0  0  0  0
   -6.0927   -1.5398    0.7907 C   0  0  0  0  0  0  0  0  0  0  0  0
   -6.3371   -2.5277   -0.1774 C   0  0  0  0  0  0  0  0  0  0  0  0
   -7.6420   -2.9385   -0.4614 C   0  0  0  0  0  0  0  0  0  0  0  0
   -8.7171   -2.3745    0.2262 C   0  0  0  0  0  0  0  0  0  0  0  0
   -8.4935   -1.4034    1.2042 C   0  0  0  0  0  0  0  0  0  0  0  0
   -9.5552   -0.8806    1.8730 F   0  0  0  0  0  0  0  0  0  0  0  0
   -7.1856   -0.9778    1.4908 C   0  0  0  0  0  0  0  0  0  0  0  0
   -6.9846   -0.0110    2.5440 C   0  0  0  0  0  0  0  0  0  0  0  0
   -6.8291    0.7614    3.3931 N   0  0  0  0  0  0  0  0  0  0  0  0
    3.2429   -1.2101    0.7345 H   0  0  0  0  0  0  0  0  0  0  0  0
    1.6480   -0.4576    1.1869 H   0  0  0  0  0  0  0  0  0  0  0  0
    1.6836   -1.9276    0.1430 H   0  0  0  0  0  0  0  0  0  0  0  0
    2.8955   -0.6184   -1.6142 H   0  0  0  0  0  0  0  0  0  0  0  0
    1.2638   -0.0096   -1.3127 H   0  0  0  0  0  0  0  0  0  0  0  0
    4.3170    2.6740   -0.8271 H   0  0  0  0  0  0  0  0  0  0  0  0
    5.1021    0.6203    0.5798 H   0  0  0  0  0  0  0  0  0  0  0  0
    6.2166    1.5633   -0.4429 H   0  0  0  0  0  0  0  0  0  0  0  0
    5.0180   -1.1935   -1.1147 H   0  0  0  0  0  0  0  0  0  0  0  0
    6.7194   -0.7697   -0.7677 H   0  0  0  0  0  0  0  0  0  0  0  0
    6.3893   -1.0097   -3.2034 H   0  0  0  0  0  0  0  0  0  0  0  0
    6.8237    0.6855   -2.7942 H   0  0  0  0  0  0  0  0  0  0  0  0
    4.9887    0.6615   -4.4288 H   0  0  0  0  0  0  0  0  0  0  0  0
    4.0147   -0.4367   -3.4385 H   0  0  0  0  0  0  0  0  0  0  0  0
    3.1073    1.7662   -3.0648 H   0  0  0  0  0  0  0  0  0  0  0  0
    4.7248    2.5077   -3.0198 H   0  0  0  0  0  0  0  0  0  0  0  0
    1.4135    4.4339    0.9698 H   0  0  0  0  0  0  0  0  0  0  0  0
    2.9490    3.5585    1.2672 H   0  0  0  0  0  0  0  0  0  0  0  0
    1.4705    3.2407    3.1891 H   0  0  0  0  0  0  0  0  0  0  0  0
    1.6732    1.6744    2.3391 H   0  0  0  0  0  0  0  0  0  0  0  0
   -0.7347    3.5017    1.8573 H   0  0  0  0  0  0  0  0  0  0  0  0
   -2.7995    2.2611    1.5246 H   0  0  0  0  0  0  0  0  0  0  0  0
   -1.5281   -1.4821    1.4884 H   0  0  0  0  0  0  0  0  0  0  0  0
   -3.6674   -2.9934    0.9906 H   0  0  0  0  0  0  0  0  0  0  0  0
   -5.5163   -2.9658   -0.7325 H   0  0  0  0  0  0  0  0  0  0  0  0
   -7.8212   -3.6961   -1.2093 H   0  0  0  0  0  0  0  0  0  0  0  0
   -9.7276   -2.6961    0.0088 H   0  0  0  0  0  0  0  0  0  0  0  0
  1  2  1  0
  2  3  1  0
  3  4  1  0
  4  5  1  0
  5  6  1  0
  6  7  1  0
  7  8  1  0
  8  9  1  0
  3 10  1  0
 10 11  2  0
 10 12  2  0
 10 13  1  0
 13 14  1  0
 14 15  1  0
 15 16  1  0
 16 17  2  0
 16 18  1  0
 18 19  1  0
 19 20  1  0
 20 21  2  0
 21 22  1  0
 22 23  1  0
 22 24  1  0
 24 25  2  0
 25 26  1  0
 26 27  2  0
 27 28  1  0
 28 29  1  0
 28 30  2  0
 30 31  1  0
 31 32  3  0
  9  4  1  0
 19 23  2  0
 24 30  1  0
  1 33  1  0
  1 34  1  0
  1 35  1  0
  2 36  1  0
  2 37  1  0
  4 38  1  0
  5 39  1  0
  5 40  1  0
  6 41  1  0
  6 42  1  0
  7 43  1  0
  7 44  1  0
  8 45  1  0
  8 46  1  0
  9 47  1  0
  9 48  1  0
 13 49  1  0
 13 50  1  0
 14 51  1  0
 14 52  1  0
 15 53  1  0
 18 54  1  0
 20 55  1  0
 21 56  1  0
 25 57  1  0
 26 58  1  0
 27 59  1  0
M  END
$$$$
