
     RDKit          3D

 53 56  0  0  0  0  0  0  0  0999 V2000
   -1.4500   -3.0080    4.2981 C   0  0  0  0  0  0  0  0  0  0  0  0
   -1.3131   -1.6735    4.6899 C   0  0  0  0  0  0  0  0  0  0  0  0
   -0.4523   -0.8221    3.9906 C   0  0  0  0  0  0  0  0  0  0  0  0
    0.2807   -1.2998    2.8899 C   0  0  0  0  0  0  0  0  0  0  0  0
    0.1373   -2.6462    2.5041 C   0  0  0  0  0  0  0  0  0  0  0  0
   -0.7252   -3.4938    3.2067 C   0  0  0  0  0  0  0  0  0  0  0  0
    1.1561   -0.3896    2.1229 C   0  0  0  0  0  0  0  0  0  0  0  0
    1.2943    0.9238    2.3911 N   0  0  0  0  0  0  0  0  0  0  0  0
    2.0876    1.3736    1.4677 O   0  0  0  0  0  0  0  0  0  0  0  0
    2.4220    0.3993    0.6577 C   0  0  0  0  0  0  0  0  0  0  0  0
    1.8581   -0.7654    1.0340 N   0  0  0  0  0  0  0  0  0  0  0  0
    3.3351    0.5710   -0.5337 C   0  0  0  0  0  0  0  0  0  0  0  0
    2.8974    1.7694   -1.3914 C   0  0  0  0  0  0  0  0  0  0  0  0
    1.5547    1.5209   -2.1181 C   0  0  0  0  0  0  0  0  0  0  0  0
    1.1506    0.0944   -2.1098 N   0  0  0  0  0  0  0  0  0  0  0  0
   -0.0162   -0.1497   -3.0003 C   0  0  0  0  0  0  0  0  0  0  0  0
   -1.2512   -0.6285   -2.1983 C   0  0  0  0  0  0  0  0  0  0  0  0
   -1.9323    0.5537   -1.4364 C   0  0  0  0  0  0  0  0  0  0  0  0
   -1.9281    0.4347    0.0959 C   0  0  0  0  0  0  0  0  0  0  0  0
   -2.7965   -0.7135    0.6595 C   0  0  0  0  0  0  0  0  0  0  0  0
   -3.1893   -1.8184   -0.3412 C   0  0  0  0  0  0  0  0  0  0  0  0
   -2.0570   -2.6194   -0.8299 N   0  0  0  0  0  0  0  0  0  0  0  0
   -0.8931   -1.8621   -1.3220 C   0  0  0  0  0  0  0  0  0  0  0  0
    2.2923   -0.7722   -2.4709 C   0  0  0  0  0  0  0  0  0  0  0  0
    3.4189   -0.6943   -1.4183 C   0  0  0  0  0  0  0  0  0  0  0  0
   -2.1189   -3.6645    4.8400 H   0  0  0  0  0  0  0  0  0  0  0  0
   -1.8773   -1.2974    5.5340 H   0  0  0  0  0  0  0  0  0  0  0  0
   -0.3677    0.2115    4.3060 H   0  0  0  0  0  0  0  0  0  0  0  0
    0.6825   -3.0412    1.6555 H   0  0  0  0  0  0  0  0  0  0  0  0
   -0.8347   -4.5274    2.9041 H   0  0  0  0  0  0  0  0  0  0  0  0
    4.3516    0.7805   -0.1327 H   0  0  0  0  0  0  0  0  0  0  0  0
    2.8302    2.6903   -0.7687 H   0  0  0  0  0  0  0  0  0  0  0  0
    3.6877    1.9594   -2.1538 H   0  0  0  0  0  0  0  0  0  0  0  0
    1.6433    1.9004   -3.1619 H   0  0  0  0  0  0  0  0  0  0  0  0
    0.7715    2.1184   -1.6058 H   0  0  0  0  0  0  0  0  0  0  0  0
   -0.2978    0.7549   -3.5866 H   0  0  0  0  0  0  0  0  0  0  0  0
    0.2086   -0.9197   -3.7744 H   0  0  0  0  0  0  0  0  0  0  0  0
   -1.9833   -0.9835   -2.9591 H   0  0  0  0  0  0  0  0  0  0  0  0
   -2.9845    0.6633   -1.7805 H   0  0  0  0  0  0  0  0  0  0  0  0
   -1.4553    1.5198   -1.6995 H   0  0  0  0  0  0  0  0  0  0  0  0
   -0.8835    0.3427    0.4533 H   0  0  0  0  0  0  0  0  0  0  0  0
   -2.2996    1.3927    0.5229 H   0  0  0  0  0  0  0  0  0  0  0  0
   -3.7407   -0.2725    1.0471 H   0  0  0  0  0  0  0  0  0  0  0  0
   -2.2843   -1.1720    1.5302 H   0  0  0  0  0  0  0  0  0  0  0  0
   -3.9015   -2.5023    0.1718 H   0  0  0  0  0  0  0  0  0  0  0  0
   -3.7581   -1.4040   -1.1983 H   0  0  0  0  0  0  0  0  0  0  0  0
   -1.7326   -3.2421   -0.0529 H   0  0  0  0  0  0  0  0  0  0  0  0
   -0.2331   -1.5797   -0.4778 H   0  0  0  0  0  0  0  0  0  0  0  0
   -0.2953   -2.5651   -1.9427 H   0  0  0  0  0  0  0  0  0  0  0  0
    2.6915   -0.4762   -3.4688 H   0  0  0  0  0  0  0  0  0  0  0  0
    1.9650   -1.8330   -2.5430 H   0  0  0  0  0  0  0  0  0  0  0  0
    4.3942   -0.6885   -1.9547 H   0  0  0  0  0  0  0  0  0  0  0  0
    3.4233   -1.6128   -0.7912 H   0  0  0  0  0  0  0  0  0  0  0  0
  1  2  2  0
  2  3  1  0
  3  4  2  0
  4  5  1  0
  5  6  2  0
  4  7  1  0
  7  8  2  0
  8  9  1  0
  9 10  1  0
 10 11  2  0
 10 12  1  0
 12 13  1  0
 13 14  1  0
 14 15  1  0
 15 16  1  0
 16 17  1  0
 17 18  1  0
 18 19  1  0
 19 20  1  0
 20 21  1  0
 21 22  1  0
 22 23  1  0
 15 24  1  0
 24 25  1  0
  1  6  1  0
 11  7  1  0
 25 12  1  0
 23 17  1  0
  1 26  1  0
  2 27  1  0
  3 28  1  0
  5 29  1  0
  6 30  1  0
 12 31  1  0
 13 32  1  0
 13 33  1  0
 14 34  1  0
 14 35  1  0
 16 36  1  0
 16 37  1  0
 17 38  1  0
 18 39  1  0
 18 40  1  0
 19 41  1  0
 19 42  1  0
 20 43  1  0
 20 44  1  0
 21 45  1  0
 21 46  1  0
 22 47  1  0
 23 48  1  0
 23 49  1  0
 24 50  1  0
 24 51  1  0
 25 52  1  0
 25 53  1  0
M  END
$$$$
