
     RDKit          3D

 47 49  0  0  0  0  0  0  0  0999 V2000
   -1.9429   -3.1305    2.7043 C   0  0  0  0  0  0  0  0  0  0  0  0
   -2.3958   -2.3556    1.5025 C   0  0  0  0  0  0  0  0  0  0  0  0
   -1.8620   -2.6388    0.2370 C   0  0  0  0  0  0  0  0  0  0  0  0
   -2.2541   -1.8915   -0.8770 C   0  0  0  0  0  0  0  0  0  0  0  0
   -3.1693   -0.8347   -0.7391 C   0  0  0  0  0  0  0  0  0  0  0  0
   -3.6989   -0.5509    0.5307 C   0  0  0  0  0  0  0  0  0  0  0  0
   -3.3078   -1.2995    1.6445 C   0  0  0  0  0  0  0  0  0  0  0  0
   -3.5719   -0.0045   -1.9384 C   0  0  0  0  0  0  0  0  0  0  0  0
   -2.6474    1.2238   -2.1857 C   0  0  0  0  0  0  0  0  0  0  0  0
   -2.7408    2.2053   -0.9941 C   0  0  0  0  0  0  0  0  0  0  0  0
   -3.1197    1.9802   -3.4460 C   0  0  0  0  0  0  0  0  0  0  0  0
   -1.2417    0.7983   -2.3482 N   0  0  0  0  0  0  0  0  0  0  0  0
   -0.7673   -0.1146   -3.3569 C   0  0  0  0  0  0  0  0  0  0  0  0
   -1.4930   -0.4144   -4.3417 O   0  0  0  0  0  0  0  0  0  0  0  0
    0.5670   -0.7292   -3.2505 C   0  0  0  0  0  0  0  0  0  0  0  0
    1.4193   -0.6801   -2.1630 C   0  0  0  0  0  0  0  0  0  0  0  0
    2.4954   -1.4412   -2.5655 C   0  0  0  0  0  0  0  0  0  0  0  0
    2.2737   -1.8878   -3.7795 O   0  0  0  0  0  0  0  0  0  0  0  0
    1.1196   -1.4820   -4.2229 N   0  0  0  0  0  0  0  0  0  0  0  0
    3.7006   -1.7273   -1.7807 C   0  0  0  0  0  0  0  0  0  0  0  0
    4.7698   -2.5010   -2.1940 C   0  0  0  0  0  0  0  0  0  0  0  0
    5.6364   -2.4867   -1.1216 C   0  0  0  0  0  0  0  0  0  0  0  0
    5.0948   -1.7313   -0.1476 N   0  0  0  0  0  0  0  0  0  0  0  0
    5.6593   -1.5159    1.1773 C   0  0  0  0  0  0  0  0  0  0  0  0
    3.9130   -1.2750   -0.5293 N   0  0  0  0  0  0  0  0  0  0  0  0
   -2.7478   -3.1743    3.4687 H   0  0  0  0  0  0  0  0  0  0  0  0
   -1.6805   -4.1725    2.4224 H   0  0  0  0  0  0  0  0  0  0  0  0
   -1.0507   -2.6391    3.1453 H   0  0  0  0  0  0  0  0  0  0  0  0
   -1.1443   -3.4401    0.1114 H   0  0  0  0  0  0  0  0  0  0  0  0
   -1.8454   -2.1426   -1.8464 H   0  0  0  0  0  0  0  0  0  0  0  0
   -4.4072    0.2580    0.6604 H   0  0  0  0  0  0  0  0  0  0  0  0
   -3.7156   -1.0545    2.6175 H   0  0  0  0  0  0  0  0  0  0  0  0
   -3.5875   -0.6569   -2.8378 H   0  0  0  0  0  0  0  0  0  0  0  0
   -4.6209    0.3428   -1.8062 H   0  0  0  0  0  0  0  0  0  0  0  0
   -3.7970    2.4864   -0.7923 H   0  0  0  0  0  0  0  0  0  0  0  0
   -2.3113    1.7563   -0.0741 H   0  0  0  0  0  0  0  0  0  0  0  0
   -2.1666    3.1324   -1.2097 H   0  0  0  0  0  0  0  0  0  0  0  0
   -2.3950    2.7800   -3.7108 H   0  0  0  0  0  0  0  0  0  0  0  0
   -4.1122    2.4497   -3.2713 H   0  0  0  0  0  0  0  0  0  0  0  0
   -3.2295    1.3045   -4.3176 H   0  0  0  0  0  0  0  0  0  0  0  0
   -0.5379    1.1645   -1.6685 H   0  0  0  0  0  0  0  0  0  0  0  0
    1.2776   -0.1872   -1.2106 H   0  0  0  0  0  0  0  0  0  0  0  0
    4.8960   -3.0131   -3.1388 H   0  0  0  0  0  0  0  0  0  0  0  0
    6.5879   -2.9984   -1.0553 H   0  0  0  0  0  0  0  0  0  0  0  0
    5.2364   -0.5918    1.6252 H   0  0  0  0  0  0  0  0  0  0  0  0
    6.7624   -1.4057    1.1085 H   0  0  0  0  0  0  0  0  0  0  0  0
    5.4166   -2.3808    1.8293 H   0  0  0  0  0  0  0  0  0  0  0  0
  1  2  1  0
  2  3  2  0
  3  4  1  0
  4  5  2  0
  5  6  1  0
  6  7  2  0
  5  8  1  0
  8  9  1  0
  9 10  1  0
  9 11  1  0
  9 12  1  0
 12 13  1  0
 13 14  2  0
 13 15  1  0
 15 16  1  0
 16 17  2  0
 17 18  1  0
 18 19  1  0
 17 20  1  0
 20 21  1  0
 21 22  2  0
 22 23  1  0
 23 24  1  0
 23 25  1  0
  2  7  1  0
 15 19  2  0
 20 25  2  0
  1 26  1  0
  1 27  1  0
  1 28  1  0
  3 29  1  0
  4 30  1  0
  6 31  1  0
  7 32  1  0
  8 33  1  0
  8 34  1  0
 10 35  1  0
 10 36  1  0
 10 37  1  0
 11 38  1  0
 11 39  1  0
 11 40  1  0
 12 41  1  0
 16 42  1  0
 21 43  1  0
 22 44  1  0
 24 45  1  0
 24 46  1  0
 24 47  1  0
M  END
$$$$
