
     RDKit          3D

 50 53  0  0  0  0  0  0  0  0999 V2000
   -3.1624    7.8263   -3.5430 C   0  0  0  0  0  0  0  0  0  0  0  0
   -2.6087    6.4359   -3.6487 C   0  0  0  0  0  0  0  0  0  0  0  0
   -3.1288    5.5343   -4.5898 C   0  0  0  0  0  0  0  0  0  0  0  0
   -2.6290    4.2318   -4.6664 C   0  0  0  0  0  0  0  0  0  0  0  0
   -1.6232    3.8137   -3.7917 C   0  0  0  0  0  0  0  0  0  0  0  0
   -1.1192    4.6960   -2.8195 C   0  0  0  0  0  0  0  0  0  0  0  0
   -1.6088    6.0068   -2.7617 C   0  0  0  0  0  0  0  0  0  0  0  0
   -0.1030    4.3171   -1.9303 O   0  0  0  0  0  0  0  0  0  0  0  0
    0.0886    3.0259   -1.4169 C   0  0  0  0  0  0  0  0  0  0  0  0
    1.3781    2.6212   -1.0644 C   0  0  0  0  0  0  0  0  0  0  0  0
    1.5956    1.3479   -0.5355 C   0  0  0  0  0  0  0  0  0  0  0  0
    0.5065    0.4823   -0.3447 C   0  0  0  0  0  0  0  0  0  0  0  0
   -0.7445    0.9053   -0.6783 N   0  0  0  0  0  0  0  0  0  0  0  0
   -0.9782    2.1393   -1.1986 C   0  0  0  0  0  0  0  0  0  0  0  0
    0.6981   -0.8758    0.2092 C   0  0  0  0  0  0  0  0  0  0  0  0
    1.8586   -1.2705    0.5082 O   0  0  0  0  0  0  0  0  0  0  0  0
   -0.4343   -1.7317    0.4422 N   0  0  0  0  0  0  0  0  0  0  0  0
   -0.3295   -3.1368    0.7283 C   0  0  0  0  0  0  0  0  0  0  0  0
   -1.2628   -3.7349    1.5867 C   0  0  0  0  0  0  0  0  0  0  0  0
   -1.1885   -5.1000    1.8712 C   0  0  0  0  0  0  0  0  0  0  0  0
   -0.1928   -5.8854    1.2875 C   0  0  0  0  0  0  0  0  0  0  0  0
    0.7310   -5.3132    0.3952 C   0  0  0  0  0  0  0  0  0  0  0  0
    0.6569   -3.9364    0.1219 C   0  0  0  0  0  0  0  0  0  0  0  0
    1.8181   -6.1556   -0.2375 C   0  0  0  0  0  0  0  0  0  0  0  0
    2.8704   -6.6208    0.8023 C   0  0  0  0  0  0  0  0  0  0  0  0
    2.8160   -8.1569    0.8519 C   0  0  0  0  0  0  0  0  0  0  0  0
    1.8299   -8.4977   -0.1921 C   0  0  0  0  0  0  0  0  0  0  0  0
    1.5155   -9.6760   -0.5046 O   0  0  0  0  0  0  0  0  0  0  0  0
    1.2568   -7.3670   -0.8077 N   0  0  0  0  0  0  0  0  0  0  0  0
   -2.3611    8.5430   -3.2642 H   0  0  0  0  0  0  0  0  0  0  0  0
   -3.9563    7.8497   -2.7674 H   0  0  0  0  0  0  0  0  0  0  0  0
   -3.5946    8.1540   -4.5123 H   0  0  0  0  0  0  0  0  0  0  0  0
   -3.9145    5.8412   -5.2687 H   0  0  0  0  0  0  0  0  0  0  0  0
   -3.0200    3.5459   -5.4069 H   0  0  0  0  0  0  0  0  0  0  0  0
   -1.2292    2.8101   -3.8836 H   0  0  0  0  0  0  0  0  0  0  0  0
   -1.2141    6.6888   -2.0182 H   0  0  0  0  0  0  0  0  0  0  0  0
    2.2149    3.2929   -1.2086 H   0  0  0  0  0  0  0  0  0  0  0  0
    2.6028    1.0463   -0.2771 H   0  0  0  0  0  0  0  0  0  0  0  0
   -1.9953    2.4328   -1.4195 H   0  0  0  0  0  0  0  0  0  0  0  0
   -1.3819   -1.2944    0.5024 H   0  0  0  0  0  0  0  0  0  0  0  0
   -2.0395   -3.1377    2.0476 H   0  0  0  0  0  0  0  0  0  0  0  0
   -1.9031   -5.5499    2.5479 H   0  0  0  0  0  0  0  0  0  0  0  0
   -0.1445   -6.9402    1.5273 H   0  0  0  0  0  0  0  0  0  0  0  0
    1.3526   -3.4953   -0.5797 H   0  0  0  0  0  0  0  0  0  0  0  0
    2.3275   -5.5906   -1.0494 H   0  0  0  0  0  0  0  0  0  0  0  0
    3.8837   -6.2933    0.4816 H   0  0  0  0  0  0  0  0  0  0  0  0
    2.6801   -6.1977    1.8135 H   0  0  0  0  0  0  0  0  0  0  0  0
    3.8052   -8.6036    0.6126 H   0  0  0  0  0  0  0  0  0  0  0  0
    2.4577   -8.5100    1.8425 H   0  0  0  0  0  0  0  0  0  0  0  0
    0.5440   -7.3978   -1.5710 H   0  0  0  0  0  0  0  0  0  0  0  0
  1  2  1  0
  2  3  2  0
  3  4  1  0
  4  5  2  0
  5  6  1  0
  6  7  2  0
  6  8  1  0
  8  9  1  0
  9 10  2  0
 10 11  1  0
 11 12  2  0
 12 13  1  0
 13 14  2  0
 12 15  1  0
 15 16  2  0
 15 17  1  0
 17 18  1  0
 18 19  2  0
 19 20  1  0
 20 21  2  0
 21 22  1  0
 22 23  2  0
 22 24  1  0
 24 25  1  0
 25 26  1  0
 26 27  1  0
 27 28  2  0
 27 29  1  0
  2  7  1  0
  9 14  1  0
 18 23  1  0
 29 24  1  0
  1 30  1  0
  1 31  1  0
  1 32  1  0
  3 33  1  0
  4 34  1  0
  5 35  1  0
  7 36  1  0
 10 37  1  0
 11 38  1  0
 14 39  1  0
 17 40  1  0
 19 41  1  0
 20 42  1  0
 21 43  1  0
 23 44  1  0
 24 45  1  0
 25 46  1  0
 25 47  1  0
 26 48  1  0
 26 49  1  0
 29 50  1  0
M  END
$$$$
