
     RDKit          3D

 36 38  0  0  0  0  0  0  0  0999 V2000
   -0.2587   -0.2288   -3.8379 O   0  0  0  0  0  0  0  0  0  0  0  0
   -0.8316    0.0696   -2.7559 C   0  0  0  0  0  0  0  0  0  0  0  0
   -0.1739   -0.1398   -1.4951 N   0  0  0  0  0  0  0  0  0  0  0  0
    1.0950   -0.7972   -1.3466 C   0  0  0  0  0  0  0  0  0  0  0  0
    2.1640   -0.5362   -2.2215 C   0  0  0  0  0  0  0  0  0  0  0  0
    3.3971   -1.1657   -2.0339 C   0  0  0  0  0  0  0  0  0  0  0  0
    3.5795   -2.0509   -0.9690 C   0  0  0  0  0  0  0  0  0  0  0  0
    2.5263   -2.3124   -0.0794 C   0  0  0  0  0  0  0  0  0  0  0  0
    1.2922   -1.6679   -0.2642 C   0  0  0  0  0  0  0  0  0  0  0  0
    2.7362   -3.2340    1.0940 C   0  0  0  0  0  0  0  0  0  0  0  0
    3.3365   -2.4879    2.2856 C   0  0  0  0  0  0  0  0  0  0  0  0
    2.4361   -1.5212    2.7522 O   0  0  0  0  0  0  0  0  0  0  0  0
   -2.1763    0.6633   -2.8048 C   0  0  0  0  0  0  0  0  0  0  0  0
   -2.5922    1.6567   -3.6894 C   0  0  0  0  0  0  0  0  0  0  0  0
   -3.8778    2.0005   -3.4472 N   0  0  0  0  0  0  0  0  0  0  0  0
   -4.2747    1.2207   -2.4296 C   0  0  0  0  0  0  0  0  0  0  0  0
   -5.5129    1.2007   -1.8797 N   0  0  0  0  0  0  0  0  0  0  0  0
   -5.7656    0.3071   -0.8786 C   0  0  0  0  0  0  0  0  0  0  0  0
   -4.7942   -0.5653   -0.4652 N   0  0  0  0  0  0  0  0  0  0  0  0
   -3.5467   -0.5587   -1.0209 C   0  0  0  0  0  0  0  0  0  0  0  0
   -2.5951   -1.4909   -0.6220 O   0  0  0  0  0  0  0  0  0  0  0  0
   -3.2786    0.3851   -2.0120 C   0  0  0  0  0  0  0  0  0  0  0  0
   -0.6786    0.1354   -0.6228 H   0  0  0  0  0  0  0  0  0  0  0  0
    2.0599    0.1765   -3.0282 H   0  0  0  0  0  0  0  0  0  0  0  0
    4.2177   -0.9571   -2.7082 H   0  0  0  0  0  0  0  0  0  0  0  0
    4.5438   -2.5243   -0.8311 H   0  0  0  0  0  0  0  0  0  0  0  0
    0.4790   -1.8500    0.4284 H   0  0  0  0  0  0  0  0  0  0  0  0
    1.7733   -3.7013    1.3964 H   0  0  0  0  0  0  0  0  0  0  0  0
    3.4204   -4.0603    0.8017 H   0  0  0  0  0  0  0  0  0  0  0  0
    3.5491   -3.2195    3.0966 H   0  0  0  0  0  0  0  0  0  0  0  0
    4.2937   -2.0051    1.9848 H   0  0  0  0  0  0  0  0  0  0  0  0
    2.8864   -1.0707    3.5131 H   0  0  0  0  0  0  0  0  0  0  0  0
   -1.9814    2.1128   -4.4579 H   0  0  0  0  0  0  0  0  0  0  0  0
   -4.4447    2.7150   -3.9554 H   0  0  0  0  0  0  0  0  0  0  0  0
   -6.7448    0.2764   -0.4210 H   0  0  0  0  0  0  0  0  0  0  0  0
   -2.8061   -2.1757    0.0937 H   0  0  0  0  0  0  0  0  0  0  0  0
  1  2  2  0
  2  3  1  0
  3  4  1  0
  4  5  2  0
  5  6  1  0
  6  7  2  0
  7  8  1  0
  8  9  2  0
  8 10  1  0
 10 11  1  0
 11 12  1  0
  2 13  1  0
 13 14  2  0
 14 15  1  0
 15 16  1  0
 16 17  2  0
 17 18  1  0
 18 19  2  0
 19 20  1  0
 20 21  1  0
 20 22  2  0
  4  9  1  0
 22 13  1  0
 16 22  1  0
  3 23  1  0
  5 24  1  0
  6 25  1  0
  7 26  1  0
  9 27  1  0
 10 28  1  0
 10 29  1  0
 11 30  1  0
 11 31  1  0
 12 32  1  0
 14 33  1  0
 15 34  1  0
 18 35  1  0
 21 36  1  0
M  END
$$$$
