
     RDKit          3D

 35 37  0  0  0  0  0  0  0  0999 V2000
    2.5683    1.1423    0.1574 O   0  0  0  0  0  0  0  0  0  0  0  0
    1.5248    0.4586   -0.0252 C   0  0  0  0  0  0  0  0  0  0  0  0
    0.6095    0.3180    1.0686 N   0  0  0  0  0  0  0  0  0  0  0  0
    0.6000    0.7601    2.4763 C   0  0  0  0  0  0  0  0  0  0  0  0
   -0.7252    0.1593    2.8275 C   0  0  0  0  0  0  0  0  0  0  0  0
   -1.8174    1.1834    3.1538 C   0  0  0  0  0  0  0  0  0  0  0  0
   -1.5941    1.7145    4.4107 F   0  0  0  0  0  0  0  0  0  0  0  0
   -0.7019   -0.2788    1.3965 C   0  0  0  0  0  0  0  0  0  0  0  0
    1.2678   -0.1243   -1.4146 C   0  0  0  0  0  0  0  0  0  0  0  0
    2.4950   -0.4848   -2.0163 O   0  0  0  0  0  0  0  0  0  0  0  0
    0.6674    0.9842   -2.3151 C   0  0  0  0  0  0  0  0  0  0  0  0
   -0.7987    1.1655   -2.0936 C   0  0  0  0  0  0  0  0  0  0  0  0
   -1.3156    2.3130   -2.1447 O   0  0  0  0  0  0  0  0  0  0  0  0
   -1.6212    0.0157   -1.9165 N   0  0  0  0  0  0  0  0  0  0  0  0
   -1.0300   -1.2568   -1.6268 C   0  0  0  0  0  0  0  0  0  0  0  0
   -1.8492   -2.3911   -1.5373 C   0  0  0  0  0  0  0  0  0  0  0  0
   -1.3100   -3.6249   -1.1745 C   0  0  0  0  0  0  0  0  0  0  0  0
    0.0494   -3.7343   -0.8813 C   0  0  0  0  0  0  0  0  0  0  0  0
    0.7759   -5.4184   -0.3482 Br  0  0  0  0  0  0  0  0  0  0  0  0
    0.8774   -2.6114   -0.9644 C   0  0  0  0  0  0  0  0  0  0  0  0
    0.3595   -1.3607   -1.3614 C   0  0  0  0  0  0  0  0  0  0  0  0
    1.4371    0.2919    3.0404 H   0  0  0  0  0  0  0  0  0  0  0  0
    0.6291    1.8712    2.5405 H   0  0  0  0  0  0  0  0  0  0  0  0
   -0.6533   -0.6841    3.5494 H   0  0  0  0  0  0  0  0  0  0  0  0
   -2.8064    0.6790    3.1489 H   0  0  0  0  0  0  0  0  0  0  0  0
   -1.8369    2.0096    2.4097 H   0  0  0  0  0  0  0  0  0  0  0  0
   -0.6704   -1.3869    1.3057 H   0  0  0  0  0  0  0  0  0  0  0  0
   -1.5106    0.1728    0.7814 H   0  0  0  0  0  0  0  0  0  0  0  0
    3.0754   -0.9278   -1.3435 H   0  0  0  0  0  0  0  0  0  0  0  0
    0.8041    0.7046   -3.3828 H   0  0  0  0  0  0  0  0  0  0  0  0
    1.2013    1.9483   -2.1596 H   0  0  0  0  0  0  0  0  0  0  0  0
   -2.6607    0.1195   -1.9493 H   0  0  0  0  0  0  0  0  0  0  0  0
   -2.9108   -2.3142   -1.7359 H   0  0  0  0  0  0  0  0  0  0  0  0
   -1.9533   -4.4926   -1.1053 H   0  0  0  0  0  0  0  0  0  0  0  0
    1.9203   -2.7226   -0.7037 H   0  0  0  0  0  0  0  0  0  0  0  0
  1  2  2  0
  2  3  1  0
  3  4  1  0
  4  5  1  0
  5  6  1  0
  6  7  1  0
  5  8  1  0
  2  9  1  0
  9 10  1  0
  9 11  1  0
 11 12  1  0
 12 13  2  0
 12 14  1  0
 14 15  1  0
 15 16  2  0
 16 17  1  0
 17 18  2  0
 18 19  1  0
 18 20  1  0
 20 21  2  0
  8  3  1  0
 21  9  1  0
 15 21  1  0
  4 22  1  0
  4 23  1  0
  5 24  1  0
  6 25  1  0
  6 26  1  0
  8 27  1  0
  8 28  1  0
 10 29  1  0
 11 30  1  0
 11 31  1  0
 14 32  1  0
 16 33  1  0
 17 34  1  0
 20 35  1  0
M  END
$$$$
