
     RDKit          3D

 52 55  0  0  0  0  0  0  0  0999 V2000
   -0.3141   -5.1334    0.2843 C   0  0  0  0  0  0  0  0  0  0  0  0
   -1.7080   -4.4916    0.2509 C   0  0  0  0  0  0  0  0  0  0  0  0
   -2.6498   -5.1884   -0.7630 C   0  0  0  0  0  0  0  0  0  0  0  0
   -3.7870   -4.2647   -1.2333 C   0  0  0  0  0  0  0  0  0  0  0  0
   -4.1702   -3.2467   -0.1554 C   0  0  0  0  0  0  0  0  0  0  0  0
   -2.9633   -2.3901    0.3016 C   0  0  0  0  0  0  0  0  0  0  0  0
   -1.6460   -3.0239    0.0365 N   0  0  0  0  0  0  0  0  0  0  0  0
   -1.0473   -2.6086   -1.2610 C   0  0  0  0  0  0  0  0  0  0  0  0
    0.2997   -1.9095   -1.0237 C   0  0  0  0  0  0  0  0  0  0  0  0
    0.1695   -0.5469   -0.2989 C   0  0  0  0  0  0  0  0  0  0  0  0
   -0.5880    0.4890   -1.1748 C   0  0  0  0  0  0  0  0  0  0  0  0
   -0.1551    1.9289   -0.8851 C   0  0  0  0  0  0  0  0  0  0  0  0
    1.2931    2.0837   -1.0915 N   0  0  0  0  0  0  0  0  0  0  0  0
    2.1836    0.9345   -0.8625 C   0  0  0  0  0  0  0  0  0  0  0  0
    1.5630   -0.0316    0.1524 C   0  0  0  0  0  0  0  0  0  0  0  0
    1.8252    3.4033   -1.3265 C   0  0  0  0  0  0  0  0  0  0  0  0
    1.1766    4.5010   -0.8272 N   0  0  0  0  0  0  0  0  0  0  0  0
    1.6399    5.7747   -1.0327 C   0  0  0  0  0  0  0  0  0  0  0  0
    2.7776    5.9899   -1.7567 N   0  0  0  0  0  0  0  0  0  0  0  0
    3.4261    4.9119   -2.2571 C   0  0  0  0  0  0  0  0  0  0  0  0
    4.5290    4.9197   -3.0163 N   0  0  0  0  0  0  0  0  0  0  0  0
    4.8104    3.6631   -3.3435 N   0  0  0  0  0  0  0  0  0  0  0  0
    3.8780    2.8528   -2.7820 C   0  0  0  0  0  0  0  0  0  0  0  0
    2.9858    3.6390   -2.0729 C   0  0  0  0  0  0  0  0  0  0  0  0
    0.3302   -4.5996    1.0145 H   0  0  0  0  0  0  0  0  0  0  0  0
    0.1737   -5.1113   -0.7115 H   0  0  0  0  0  0  0  0  0  0  0  0
   -0.3977   -6.1941    0.6046 H   0  0  0  0  0  0  0  0  0  0  0  0
   -2.1343   -4.6647    1.2668 H   0  0  0  0  0  0  0  0  0  0  0  0
   -3.0879   -6.0898   -0.2807 H   0  0  0  0  0  0  0  0  0  0  0  0
   -2.0851   -5.5380   -1.6543 H   0  0  0  0  0  0  0  0  0  0  0  0
   -3.4759   -3.7214   -2.1513 H   0  0  0  0  0  0  0  0  0  0  0  0
   -4.6763   -4.8764   -1.4984 H   0  0  0  0  0  0  0  0  0  0  0  0
   -4.5831   -3.7965    0.7196 H   0  0  0  0  0  0  0  0  0  0  0  0
   -4.9741   -2.5840   -0.5414 H   0  0  0  0  0  0  0  0  0  0  0  0
   -3.0515   -2.2155    1.3966 H   0  0  0  0  0  0  0  0  0  0  0  0
   -3.0279   -1.3792   -0.1574 H   0  0  0  0  0  0  0  0  0  0  0  0
   -1.7159   -1.9409   -1.8479 H   0  0  0  0  0  0  0  0  0  0  0  0
   -0.8661   -3.4772   -1.9291 H   0  0  0  0  0  0  0  0  0  0  0  0
    0.9376   -2.5910   -0.4231 H   0  0  0  0  0  0  0  0  0  0  0  0
    0.8114   -1.7649   -1.9998 H   0  0  0  0  0  0  0  0  0  0  0  0
   -0.4229   -0.7095    0.6295 H   0  0  0  0  0  0  0  0  0  0  0  0
   -0.4040    0.2919   -2.2543 H   0  0  0  0  0  0  0  0  0  0  0  0
   -1.6814    0.4029   -1.0019 H   0  0  0  0  0  0  0  0  0  0  0  0
   -0.7110    2.6064   -1.5712 H   0  0  0  0  0  0  0  0  0  0  0  0
   -0.4131    2.2003    0.1626 H   0  0  0  0  0  0  0  0  0  0  0  0
    2.3558    0.4003   -1.8208 H   0  0  0  0  0  0  0  0  0  0  0  0
    3.1606    1.2795   -0.4583 H   0  0  0  0  0  0  0  0  0  0  0  0
    1.4504    0.5107    1.1178 H   0  0  0  0  0  0  0  0  0  0  0  0
    2.2679   -0.8700    0.3440 H   0  0  0  0  0  0  0  0  0  0  0  0
    1.0970    6.6166   -0.6238 H   0  0  0  0  0  0  0  0  0  0  0  0
    5.0794    5.7541   -3.3174 H   0  0  0  0  0  0  0  0  0  0  0  0
    3.8578    1.7821   -2.9091 H   0  0  0  0  0  0  0  0  0  0  0  0
  1  2  1  0
  2  3  1  0
  3  4  1  0
  4  5  1  0
  5  6  1  0
  6  7  1  0
  7  8  1  0
  8  9  1  0
  9 10  1  0
 10 11  1  0
 11 12  1  0
 12 13  1  0
 13 14  1  0
 14 15  1  0
 13 16  1  0
 16 17  2  0
 17 18  1  0
 18 19  2  0
 19 20  1  0
 20 21  1  0
 21 22  1  0
 22 23  2  0
 23 24  1  0
  7  2  1  0
 15 10  1  0
 16 24  1  0
 24 20  2  0
  1 25  1  0
  1 26  1  0
  1 27  1  0
  2 28  1  0
  3 29  1  0
  3 30  1  0
  4 31  1  0
  4 32  1  0
  5 33  1  0
  5 34  1  0
  6 35  1  0
  6 36  1  0
  8 37  1  0
  8 38  1  0
  9 39  1  0
  9 40  1  0
 10 41  1  0
 11 42  1  0
 11 43  1  0
 12 44  1  0
 12 45  1  0
 14 46  1  0
 14 47  1  0
 15 48  1  0
 15 49  1  0
 18 50  1  0
 21 51  1  0
 23 52  1  0
M  END
$$$$
