
     RDKit          3D

 34 37  0  0  0  0  0  0  0  0999 V2000
   -0.9445    2.1921   -0.2250 C   0  0  0  0  0  0  0  0  0  0  0  0
   -0.8925    1.6940   -1.6766 C   0  0  1  0  0  0  0  0  0  0  0  0
    0.4552    1.2258   -2.0205 N   0  0  0  0  0  0  0  0  0  0  0  0
    1.0689    0.0464   -1.4719 C   0  0  0  0  0  0  0  0  0  0  0  0
    0.4058   -0.7532   -0.5814 N   0  0  0  0  0  0  0  0  0  0  0  0
    0.9734   -1.8841   -0.0588 C   0  0  0  0  0  0  0  0  0  0  0  0
    0.2698   -2.6833    0.8473 C   0  0  0  0  0  0  0  0  0  0  0  0
    0.8680   -3.8366    1.3691 C   0  0  0  0  0  0  0  0  0  0  0  0
    2.1680   -4.1944    0.9879 C   0  0  0  0  0  0  0  0  0  0  0  0
    2.8817   -3.4025    0.0811 C   0  0  0  0  0  0  0  0  0  0  0  0
    2.2867   -2.2475   -0.4436 C   0  0  0  0  0  0  0  0  0  0  0  0
    2.9172   -1.4340   -1.3275 N   0  0  0  0  0  0  0  0  0  0  0  0
    4.1242   -1.5351   -1.8489 N   0  0  0  0  0  0  0  0  0  0  0  0
    4.2961   -0.5007   -2.6675 N   0  0  0  0  0  0  0  0  0  0  0  0
    3.2103    0.2722   -2.6829 N   0  0  0  0  0  0  0  0  0  0  0  0
    2.3620   -0.3349   -1.8351 C   0  0  0  0  0  0  0  0  0  0  0  0
   -1.9322    0.6507   -2.0357 C   0  0  0  0  0  0  0  0  0  0  0  0
   -2.5745   -0.1628   -1.0814 C   0  0  0  0  0  0  0  0  0  0  0  0
   -3.4698   -1.0991   -1.4917 N   0  0  0  0  0  0  0  0  0  0  0  0
   -3.7587   -1.2719   -2.8069 C   0  0  0  0  0  0  0  0  0  0  0  0
   -3.1216   -0.4762   -3.7578 C   0  0  0  0  0  0  0  0  0  0  0  0
   -2.2247    0.4594   -3.3519 N   0  0  0  0  0  0  0  0  0  0  0  0
   -1.9693    2.5418    0.0229 H   0  0  0  0  0  0  0  0  0  0  0  0
   -0.6456    1.4012    0.4927 H   0  0  0  0  0  0  0  0  0  0  0  0
   -0.2465    3.0473   -0.1013 H   0  0  0  0  0  0  0  0  0  0  0  0
   -1.1133    2.5840   -2.3078 H   0  0  0  0  0  0  0  0  0  0  0  0
    0.9905    1.7825   -2.7250 H   0  0  0  0  0  0  0  0  0  0  0  0
   -0.7358   -2.4148    1.1468 H   0  0  0  0  0  0  0  0  0  0  0  0
    0.3232   -4.4552    2.0705 H   0  0  0  0  0  0  0  0  0  0  0  0
    2.6223   -5.0878    1.3964 H   0  0  0  0  0  0  0  0  0  0  0  0
    3.8853   -3.6885   -0.2072 H   0  0  0  0  0  0  0  0  0  0  0  0
   -2.3695   -0.0683   -0.0250 H   0  0  0  0  0  0  0  0  0  0  0  0
   -4.4750   -2.0234   -3.1110 H   0  0  0  0  0  0  0  0  0  0  0  0
   -3.3351   -0.6023   -4.8108 H   0  0  0  0  0  0  0  0  0  0  0  0
  1  2  1  0
  2  3  1  0
  3  4  1  0
  4  5  2  0
  5  6  1  0
  6  7  2  0
  7  8  1  0
  8  9  2  0
  9 10  1  0
 10 11  2  0
 11 12  1  0
 12 13  1  0
 13 14  2  0
 14 15  1  0
 15 16  2  0
  2 17  1  0
 17 18  2  0
 18 19  1  0
 19 20  2  0
 20 21  1  0
 21 22  2  0
 16  4  1  0
  6 11  1  0
 16 12  1  0
 17 22  1  0
  1 23  1  0
  1 24  1  0
  1 25  1  0
  2 26  1  6
  3 27  1  0
  7 28  1  0
  8 29  1  0
  9 30  1  0
 10 31  1  0
 18 32  1  0
 20 33  1  0
 21 34  1  0
M  END
$$$$
