
     RDKit          3D

 39 42  0  0  0  0  0  0  0  0999 V2000
   -3.9547   -2.0870   -1.4276 C   0  0  0  0  0  0  0  0  0  0  0  0
   -3.0732   -0.9810   -0.8400 C   0  0  1  0  0  0  0  0  0  0  0  0
   -2.8537    0.0745   -1.8491 N   0  0  0  0  0  0  0  0  0  0  0  0
   -1.9339    1.1363   -1.4010 C   0  0  0  0  0  0  0  0  0  0  0  0
   -0.5503    0.6146   -1.1226 C   0  0  0  0  0  0  0  0  0  0  0  0
   -0.1531    0.4324    0.1713 N   0  0  0  0  0  0  0  0  0  0  0  0
    1.0772   -0.0725    0.4176 C   0  0  0  0  0  0  0  0  0  0  0  0
    1.7619   -0.3846    1.9378 S   0  0  0  0  0  0  0  0  0  0  0  0
    3.1896   -0.9605    1.2389 C   0  0  0  0  0  0  0  0  0  0  0  0
    4.4476   -1.5032    1.7750 C   0  0  0  0  0  0  0  0  0  0  0  0
    5.2524   -1.8164    0.4866 C   0  0  0  0  0  0  0  0  0  0  0  0
    4.3772   -1.4310   -0.7364 C   0  0  0  0  0  0  0  0  0  0  0  0
    3.1428   -0.9184   -0.1100 C   0  0  0  0  0  0  0  0  0  0  0  0
    1.9433   -0.4145   -0.6070 C   0  0  0  0  0  0  0  0  0  0  0  0
    1.5328   -0.2314   -1.9253 C   0  0  0  0  0  0  0  0  0  0  0  0
    2.2884   -0.5318   -2.8883 O   0  0  0  0  0  0  0  0  0  0  0  0
    0.2875    0.2804   -2.1575 N   0  0  0  0  0  0  0  0  0  0  0  0
   -3.7300   -0.4215    0.3947 C   0  0  0  0  0  0  0  0  0  0  0  0
   -3.2313   -0.5137    1.6881 C   0  0  0  0  0  0  0  0  0  0  0  0
   -4.0461    0.1168    2.6354 C   0  0  0  0  0  0  0  0  0  0  0  0
   -3.6274    0.1690    4.4952 Br  0  0  0  0  0  0  0  0  0  0  0  0
   -5.1843    0.7050    2.0990 C   0  0  0  0  0  0  0  0  0  0  0  0
   -5.1759    0.4416    0.4380 S   0  0  0  0  0  0  0  0  0  0  0  0
   -3.4431   -2.5624   -2.2914 H   0  0  0  0  0  0  0  0  0  0  0  0
   -4.9254   -1.6720   -1.7742 H   0  0  0  0  0  0  0  0  0  0  0  0
   -4.1474   -2.8718   -0.6646 H   0  0  0  0  0  0  0  0  0  0  0  0
   -2.1038   -1.4525   -0.5627 H   0  0  0  0  0  0  0  0  0  0  0  0
   -2.4492   -0.3604   -2.7121 H   0  0  0  0  0  0  0  0  0  0  0  0
   -2.3396    1.6498   -0.5029 H   0  0  0  0  0  0  0  0  0  0  0  0
   -1.8686    1.9097   -2.1960 H   0  0  0  0  0  0  0  0  0  0  0  0
    4.9619   -0.7406    2.3977 H   0  0  0  0  0  0  0  0  0  0  0  0
    4.2497   -2.4256    2.3615 H   0  0  0  0  0  0  0  0  0  0  0  0
    5.5055   -2.8984    0.4486 H   0  0  0  0  0  0  0  0  0  0  0  0
    6.1983   -1.2320    0.4771 H   0  0  0  0  0  0  0  0  0  0  0  0
    4.1505   -2.3197   -1.3634 H   0  0  0  0  0  0  0  0  0  0  0  0
    4.8614   -0.6353   -1.3421 H   0  0  0  0  0  0  0  0  0  0  0  0
   -0.0314    0.4161   -3.1439 H   0  0  0  0  0  0  0  0  0  0  0  0
   -2.3053   -1.0148    1.9386 H   0  0  0  0  0  0  0  0  0  0  0  0
   -5.9421    1.2416    2.6535 H   0  0  0  0  0  0  0  0  0  0  0  0
  1  2  1  0
  2  3  1  0
  3  4  1  0
  4  5  1  0
  5  6  2  0
  6  7  1  0
  7  8  1  0
  8  9  1  0
  9 10  1  0
 10 11  1  0
 11 12  1  0
 12 13  1  0
 13 14  1  0
 14 15  1  0
 15 16  2  0
 15 17  1  0
  2 18  1  0
 18 19  2  0
 19 20  1  0
 20 21  1  0
 20 22  2  0
 22 23  1  0
 17  5  1  0
  7 14  2  0
  9 13  2  0
 23 18  1  0
  1 24  1  0
  1 25  1  0
  1 26  1  0
  2 27  1  1
  3 28  1  0
  4 29  1  0
  4 30  1  0
 10 31  1  0
 10 32  1  0
 11 33  1  0
 11 34  1  0
 12 35  1  0
 12 36  1  0
 17 37  1  0
 19 38  1  0
 22 39  1  0
M  END
$$$$
