
     RDKit          3D

 44 47  0  0  0  0  0  0  0  0999 V2000
   -1.4710   -3.9528   -0.7382 C   0  0  0  0  0  0  0  0  0  0  0  0
   -0.8046   -2.9528   -0.0252 C   0  0  0  0  0  0  0  0  0  0  0  0
    0.3689   -2.3913   -0.5374 C   0  0  0  0  0  0  0  0  0  0  0  0
    0.8747   -2.8163   -1.7808 C   0  0  0  0  0  0  0  0  0  0  0  0
    0.2129   -3.8366   -2.4759 C   0  0  0  0  0  0  0  0  0  0  0  0
   -0.9594   -4.3987   -1.9600 C   0  0  0  0  0  0  0  0  0  0  0  0
    2.0451   -2.2742   -2.3318 O   0  0  0  0  0  0  0  0  0  0  0  0
    2.4511   -0.9411   -2.1889 C   0  0  0  0  0  0  0  0  0  0  0  0
    3.7666   -0.5863   -2.4885 C   0  0  0  0  0  0  0  0  0  0  0  0
    4.1444    0.7498   -2.3547 C   0  0  0  0  0  0  0  0  0  0  0  0
    3.2367    1.6748   -1.9471 N   0  0  0  0  0  0  0  0  0  0  0  0
    1.9541    1.3200   -1.6673 C   0  0  0  0  0  0  0  0  0  0  0  0
    1.5728    0.0205   -1.7958 N   0  0  0  0  0  0  0  0  0  0  0  0
    1.0148    2.3157   -1.2397 N   0  0  0  0  0  0  0  0  0  0  0  0
   -0.3845    1.9901   -0.9325 C   0  0  0  0  0  0  0  0  0  0  0  0
   -1.2681    3.2622   -0.9885 C   0  0  0  0  0  0  0  0  0  0  0  0
   -2.5032    3.1195   -0.0952 C   0  0  0  0  0  0  0  0  0  0  0  0
   -2.0882    3.0029    1.3845 C   0  0  0  0  0  0  0  0  0  0  0  0
   -3.1329    2.4155    2.1307 O   0  0  0  0  0  0  0  0  0  0  0  0
   -2.5864    1.3592    2.8869 C   0  0  0  0  0  0  0  0  0  0  0  0
   -1.0751    1.4567    2.8719 C   0  0  0  0  0  0  0  0  0  0  0  0
   -0.7917    2.2051    1.5977 C   0  0  0  0  0  0  0  0  0  0  0  0
   -0.4853    1.2481    0.4259 C   0  0  0  0  0  0  0  0  0  0  0  0
   -2.3782   -4.3884   -0.3398 H   0  0  0  0  0  0  0  0  0  0  0  0
   -1.1918   -2.6186    0.9289 H   0  0  0  0  0  0  0  0  0  0  0  0
    0.8929   -1.6494    0.0484 H   0  0  0  0  0  0  0  0  0  0  0  0
    0.6016   -4.1852   -3.4243 H   0  0  0  0  0  0  0  0  0  0  0  0
   -1.4711   -5.1794   -2.5078 H   0  0  0  0  0  0  0  0  0  0  0  0
    4.4815   -1.3307   -2.8147 H   0  0  0  0  0  0  0  0  0  0  0  0
    5.1593    1.0521   -2.5755 H   0  0  0  0  0  0  0  0  0  0  0  0
    1.3474    3.3049   -1.1821 H   0  0  0  0  0  0  0  0  0  0  0  0
   -0.7636    1.3009   -1.7209 H   0  0  0  0  0  0  0  0  0  0  0  0
   -0.6987    4.1565   -0.6518 H   0  0  0  0  0  0  0  0  0  0  0  0
   -1.5876    3.4459   -2.0373 H   0  0  0  0  0  0  0  0  0  0  0  0
   -3.0782    2.2187   -0.4053 H   0  0  0  0  0  0  0  0  0  0  0  0
   -3.1633    4.0042   -0.2265 H   0  0  0  0  0  0  0  0  0  0  0  0
   -1.9262    4.0314    1.7787 H   0  0  0  0  0  0  0  0  0  0  0  0
   -2.9674    1.4083    3.9291 H   0  0  0  0  0  0  0  0  0  0  0  0
   -2.9071    0.3936    2.4387 H   0  0  0  0  0  0  0  0  0  0  0  0
   -0.5954    0.4537    2.9115 H   0  0  0  0  0  0  0  0  0  0  0  0
   -0.7334    2.0587    3.7432 H   0  0  0  0  0  0  0  0  0  0  0  0
    0.0740    2.8917    1.7372 H   0  0  0  0  0  0  0  0  0  0  0  0
    0.4564    0.6998    0.6420 H   0  0  0  0  0  0  0  0  0  0  0  0
   -1.2933    0.4855    0.3538 H   0  0  0  0  0  0  0  0  0  0  0  0
  1  2  2  0
  2  3  1  0
  3  4  2  0
  4  5  1  0
  5  6  2  0
  4  7  1  0
  7  8  1  0
  8  9  2  0
  9 10  1  0
 10 11  2  0
 11 12  1  0
 12 13  2  0
 12 14  1  0
 14 15  1  0
 15 16  1  0
 16 17  1  0
 17 18  1  0
 18 19  1  0
 19 20  1  0
 20 21  1  0
 21 22  1  0
 22 23  1  0
  6  1  1  0
  8 13  1  0
 23 15  1  0
 22 18  1  0
  1 24  1  0
  2 25  1  0
  3 26  1  0
  5 27  1  0
  6 28  1  0
  9 29  1  0
 10 30  1  0
 14 31  1  0
 15 32  1  0
 16 33  1  0
 16 34  1  0
 17 35  1  0
 17 36  1  0
 18 37  1  0
 20 38  1  0
 20 39  1  0
 21 40  1  0
 21 41  1  0
 22 42  1  0
 23 43  1  0
 23 44  1  0
M  END
$$$$
