
     RDKit          3D

 45 47  0  0  0  0  0  0  0  0999 V2000
   -3.6816    0.7698    0.3087 C   0  0  0  0  0  0  0  0  0  0  0  0
   -2.8791   -0.4776    0.6981 C   0  0  0  0  0  0  0  0  0  0  0  0
   -1.6210   -0.1151    1.4439 C   0  0  0  0  0  0  0  0  0  0  0  0
   -1.4671   -0.5351    2.6229 O   0  0  0  0  0  0  0  0  0  0  0  0
   -0.6049    0.6953    0.8286 N   0  0  0  0  0  0  0  0  0  0  0  0
    0.6437    1.0727    1.5103 C   0  0  0  0  0  0  0  0  0  0  0  0
    1.5877   -0.1305    1.7547 C   0  0  0  0  0  0  0  0  0  0  0  0
    1.8227   -0.9382    0.5010 C   0  0  0  0  0  0  0  0  0  0  0  0
    1.0161   -2.0539    0.2155 C   0  0  0  0  0  0  0  0  0  0  0  0
    1.2283   -2.7986   -0.9483 C   0  0  0  0  0  0  0  0  0  0  0  0
    2.2348   -2.4292   -1.8431 C   0  0  0  0  0  0  0  0  0  0  0  0
    3.0400   -1.3208   -1.5694 C   0  0  0  0  0  0  0  0  0  0  0  0
    2.8392   -0.5793   -0.4010 C   0  0  0  0  0  0  0  0  0  0  0  0
    1.3276    2.2844    0.8554 C   0  0  0  0  0  0  0  0  0  0  0  0
    1.0598    3.1129    2.1040 C   0  0  0  0  0  0  0  0  0  0  0  0
    0.3860    1.9187    2.7645 C   0  0  0  0  0  0  0  0  0  0  0  0
   -2.5657   -1.3138   -0.4661 N   0  0  0  0  0  0  0  0  0  0  0  0
   -2.1385   -0.9062   -1.6810 C   0  0  0  0  0  0  0  0  0  0  0  0
   -1.9316   -2.0166   -2.4699 C   0  0  0  0  0  0  0  0  0  0  0  0
   -2.2382   -3.0848   -1.6479 C   0  0  0  0  0  0  0  0  0  0  0  0
   -2.6278   -2.6361   -0.4391 N   0  0  0  0  0  0  0  0  0  0  0  0
   -2.2427   -4.5266   -2.0445 C   0  0  0  0  0  0  0  0  0  0  0  0
   -3.4725   -4.8492   -2.5859 F   0  0  0  0  0  0  0  0  0  0  0  0
   -1.2545   -4.7662   -2.9823 F   0  0  0  0  0  0  0  0  0  0  0  0
   -2.0111   -5.3196   -0.9354 F   0  0  0  0  0  0  0  0  0  0  0  0
   -4.5979    0.4699   -0.2427 H   0  0  0  0  0  0  0  0  0  0  0  0
   -3.9882    1.3216    1.2230 H   0  0  0  0  0  0  0  0  0  0  0  0
   -3.0889    1.4553   -0.3315 H   0  0  0  0  0  0  0  0  0  0  0  0
   -3.5296   -1.0693    1.3817 H   0  0  0  0  0  0  0  0  0  0  0  0
   -0.7477    1.0065   -0.1569 H   0  0  0  0  0  0  0  0  0  0  0  0
    2.5627    0.2227    2.1578 H   0  0  0  0  0  0  0  0  0  0  0  0
    1.1527   -0.7852    2.5402 H   0  0  0  0  0  0  0  0  0  0  0  0
    0.2283   -2.3516    0.8958 H   0  0  0  0  0  0  0  0  0  0  0  0
    0.6135   -3.6638   -1.1556 H   0  0  0  0  0  0  0  0  0  0  0  0
    2.3944   -3.0049   -2.7456 H   0  0  0  0  0  0  0  0  0  0  0  0
    3.8240   -1.0390   -2.2603 H   0  0  0  0  0  0  0  0  0  0  0  0
    3.4830    0.2660   -0.1983 H   0  0  0  0  0  0  0  0  0  0  0  0
    0.7939    2.6898   -0.0317 H   0  0  0  0  0  0  0  0  0  0  0  0
    2.4172    2.1591    0.6819 H   0  0  0  0  0  0  0  0  0  0  0  0
    0.3536    3.9511    1.9162 H   0  0  0  0  0  0  0  0  0  0  0  0
    1.9945    3.4164    2.6244 H   0  0  0  0  0  0  0  0  0  0  0  0
    0.9409    1.5701    3.6635 H   0  0  0  0  0  0  0  0  0  0  0  0
   -0.6909    2.1129    2.9635 H   0  0  0  0  0  0  0  0  0  0  0  0
   -1.9962    0.1215   -1.9855 H   0  0  0  0  0  0  0  0  0  0  0  0
   -1.6069   -2.0418   -3.5016 H   0  0  0  0  0  0  0  0  0  0  0  0
  1  2  1  0
  2  3  1  0
  3  4  2  0
  3  5  1  0
  5  6  1  0
  6  7  1  0
  7  8  1  0
  8  9  2  0
  9 10  1  0
 10 11  2  0
 11 12  1  0
 12 13  2  0
  6 14  1  0
 14 15  1  0
 15 16  1  0
  2 17  1  0
 17 18  1  0
 18 19  2  0
 19 20  1  0
 20 21  2  0
 20 22  1  0
 22 23  1  0
 22 24  1  0
 22 25  1  0
 16  6  1  0
  8 13  1  0
 21 17  1  0
  1 26  1  0
  1 27  1  0
  1 28  1  0
  2 29  1  0
  5 30  1  0
  7 31  1  0
  7 32  1  0
  9 33  1  0
 10 34  1  0
 11 35  1  0
 12 36  1  0
 13 37  1  0
 14 38  1  0
 14 39  1  0
 15 40  1  0
 15 41  1  0
 16 42  1  0
 16 43  1  0
 18 44  1  0
 19 45  1  0
M  END
$$$$
