
     RDKit          3D

 48 51  0  0  0  0  0  0  0  0999 V2000
    0.7303   -3.1065   -1.9270 C   0  0  0  0  0  0  0  0  0  0  0  0
    0.5965   -1.8822   -2.8296 C   0  0  0  0  0  0  0  0  0  0  0  0
   -0.0773   -0.6906   -2.1097 C   0  0  0  0  0  0  0  0  0  0  0  0
   -0.2804    0.4940   -3.0656 C   0  0  0  0  0  0  0  0  0  0  0  0
    1.0067    1.2322   -3.3455 C   0  0  0  0  0  0  0  0  0  0  0  0
    1.0931    2.0445   -4.4877 C   0  0  0  0  0  0  0  0  0  0  0  0
    2.2509    2.7817   -4.7458 C   0  0  0  0  0  0  0  0  0  0  0  0
    3.3290    2.7239   -3.8617 C   0  0  0  0  0  0  0  0  0  0  0  0
    3.2516    1.9323   -2.7137 C   0  0  0  0  0  0  0  0  0  0  0  0
    2.0906    1.1933   -2.4357 C   0  0  0  0  0  0  0  0  0  0  0  0
    2.0631    0.3129   -1.2089 C   0  0  0  0  0  0  0  0  0  0  0  0
    0.7177   -0.2272   -0.9583 N   0  0  0  0  0  0  0  0  0  0  0  0
    0.1288   -0.1006    0.3541 C   0  0  0  0  0  0  0  0  0  0  0  0
    0.3900    0.9146    1.0568 O   0  0  0  0  0  0  0  0  0  0  0  0
   -0.8261   -1.1418    0.8956 C   0  0  0  0  0  0  0  0  0  0  0  0
   -0.3757   -1.6117    2.3055 C   0  0  0  0  0  0  0  0  0  0  0  0
   -1.4556   -2.3534    3.1131 C   0  0  0  0  0  0  0  0  0  0  0  0
   -2.2141   -3.3341    2.2761 C   0  0  0  0  0  0  0  0  0  0  0  0
   -2.1956   -4.6643    2.4822 N   0  0  0  0  0  0  0  0  0  0  0  0
   -2.9749   -5.2064    1.5576 N   0  0  0  0  0  0  0  0  0  0  0  0
   -3.4540   -4.2002    0.8010 C   0  0  0  0  0  0  0  0  0  0  0  0
   -2.9854   -3.0102    1.2180 N   0  0  0  0  0  0  0  0  0  0  0  0
   -3.3413   -1.6967    0.6642 C   0  0  0  0  0  0  0  0  0  0  0  0
   -2.2753   -0.6006    0.8893 C   0  0  0  0  0  0  0  0  0  0  0  0
   -0.2731   -3.4656   -1.6147 H   0  0  0  0  0  0  0  0  0  0  0  0
    1.3372   -2.8672   -1.0284 H   0  0  0  0  0  0  0  0  0  0  0  0
    1.2357   -3.9230   -2.4843 H   0  0  0  0  0  0  0  0  0  0  0  0
   -0.0169   -2.1709   -3.7108 H   0  0  0  0  0  0  0  0  0  0  0  0
    1.6019   -1.5977   -3.2064 H   0  0  0  0  0  0  0  0  0  0  0  0
   -1.0893   -1.0193   -1.7897 H   0  0  0  0  0  0  0  0  0  0  0  0
   -0.7394    0.1394   -4.0148 H   0  0  0  0  0  0  0  0  0  0  0  0
   -0.9915    1.2101   -2.5992 H   0  0  0  0  0  0  0  0  0  0  0  0
    0.2615    2.1077   -5.1787 H   0  0  0  0  0  0  0  0  0  0  0  0
    2.3113    3.4007   -5.6317 H   0  0  0  0  0  0  0  0  0  0  0  0
    4.2264    3.2935   -4.0661 H   0  0  0  0  0  0  0  0  0  0  0  0
    4.0986    1.8935   -2.0397 H   0  0  0  0  0  0  0  0  0  0  0  0
    2.4294    0.8960   -0.3364 H   0  0  0  0  0  0  0  0  0  0  0  0
    2.7693   -0.5316   -1.3548 H   0  0  0  0  0  0  0  0  0  0  0  0
   -0.7712   -2.0276    0.2313 H   0  0  0  0  0  0  0  0  0  0  0  0
   -0.0490   -0.7432    2.9181 H   0  0  0  0  0  0  0  0  0  0  0  0
    0.5075   -2.2781    2.1893 H   0  0  0  0  0  0  0  0  0  0  0  0
   -2.1727   -1.6272    3.5510 H   0  0  0  0  0  0  0  0  0  0  0  0
   -0.9719   -2.8832    3.9620 H   0  0  0  0  0  0  0  0  0  0  0  0
   -4.1317   -4.3363   -0.0319 H   0  0  0  0  0  0  0  0  0  0  0  0
   -4.3052   -1.3651    1.1059 H   0  0  0  0  0  0  0  0  0  0  0  0
   -3.4994   -1.8063   -0.4316 H   0  0  0  0  0  0  0  0  0  0  0  0
   -2.3997    0.1497    0.0764 H   0  0  0  0  0  0  0  0  0  0  0  0
   -2.4849   -0.0546    1.8345 H   0  0  0  0  0  0  0  0  0  0  0  0
  1  2  1  0
  2  3  1  0
  3  4  1  0
  4  5  1  0
  5  6  2  0
  6  7  1  0
  7  8  2  0
  8  9  1  0
  9 10  2  0
 10 11  1  0
 11 12  1  0
 12 13  1  0
 13 14  2  0
 13 15  1  0
 15 16  1  0
 16 17  1  0
 17 18  1  0
 18 19  2  0
 19 20  1  0
 20 21  2  0
 21 22  1  0
 22 23  1  0
 23 24  1  0
 12  3  1  0
  5 10  1  0
 24 15  1  0
 22 18  1  0
  1 25  1  0
  1 26  1  0
  1 27  1  0
  2 28  1  0
  2 29  1  0
  3 30  1  0
  4 31  1  0
  4 32  1  0
  6 33  1  0
  7 34  1  0
  8 35  1  0
  9 36  1  0
 11 37  1  0
 11 38  1  0
 15 39  1  0
 16 40  1  0
 16 41  1  0
 17 42  1  0
 17 43  1  0
 21 44  1  0
 23 45  1  0
 23 46  1  0
 24 47  1  0
 24 48  1  0
M  END
$$$$
