
     RDKit          3D

 44 47  0  0  0  0  0  0  0  0999 V2000
   -1.7390   -5.4065    5.0676 C   0  0  0  0  0  0  0  0  0  0  0  0
   -0.5259   -5.7766    4.4805 C   0  0  0  0  0  0  0  0  0  0  0  0
    0.0386   -4.9813    3.4782 C   0  0  0  0  0  0  0  0  0  0  0  0
   -0.5984   -3.8043    3.0648 C   0  0  0  0  0  0  0  0  0  0  0  0
   -1.8299   -3.4473    3.6459 C   0  0  0  0  0  0  0  0  0  0  0  0
   -2.3923   -4.2446    4.6477 C   0  0  0  0  0  0  0  0  0  0  0  0
   -0.0090   -3.0414    2.0458 O   0  0  0  0  0  0  0  0  0  0  0  0
   -0.1200   -1.6511    1.9023 C   0  0  0  0  0  0  0  0  0  0  0  0
   -0.2527   -0.7988    3.0085 C   0  0  0  0  0  0  0  0  0  0  0  0
   -0.3378    0.5742    2.7863 C   0  0  0  0  0  0  0  0  0  0  0  0
   -0.2780    1.0613    1.5209 N   0  0  0  0  0  0  0  0  0  0  0  0
   -0.1310    0.2283    0.4548 C   0  0  0  0  0  0  0  0  0  0  0  0
   -0.0498   -1.1143    0.6558 N   0  0  0  0  0  0  0  0  0  0  0  0
   -0.0614    0.7514   -0.8785 N   0  0  0  0  0  0  0  0  0  0  0  0
   -0.1233    2.1907   -1.1665 C   0  0  0  0  0  0  0  0  0  0  0  0
   -0.4984    2.4358   -2.6474 C   0  0  0  0  0  0  0  0  0  0  0  0
    0.0107    3.7931   -3.1335 C   0  0  0  0  0  0  0  0  0  0  0  0
    1.5493    3.8225   -3.1461 C   0  0  0  0  0  0  0  0  0  0  0  0
    2.0187    3.1486   -4.2964 O   0  0  0  0  0  0  0  0  0  0  0  0
    3.0506    2.2814   -3.8914 C   0  0  0  0  0  0  0  0  0  0  0  0
    2.8589    1.9466   -2.4305 C   0  0  0  0  0  0  0  0  0  0  0  0
    2.1820    3.1822   -1.8969 C   0  0  0  0  0  0  0  0  0  0  0  0
    1.1959    2.8958   -0.7421 C   0  0  0  0  0  0  0  0  0  0  0  0
   -2.1761   -6.0235    5.8420 H   0  0  0  0  0  0  0  0  0  0  0  0
   -0.0240   -6.6805    4.8005 H   0  0  0  0  0  0  0  0  0  0  0  0
    0.9774   -5.2756    3.0263 H   0  0  0  0  0  0  0  0  0  0  0  0
   -2.3635   -2.5671    3.3124 H   0  0  0  0  0  0  0  0  0  0  0  0
   -3.3385   -3.9657    5.0934 H   0  0  0  0  0  0  0  0  0  0  0  0
   -0.2699   -1.1838    4.0195 H   0  0  0  0  0  0  0  0  0  0  0  0
   -0.4437    1.2545    3.6207 H   0  0  0  0  0  0  0  0  0  0  0  0
   -0.0102    0.0632   -1.6637 H   0  0  0  0  0  0  0  0  0  0  0  0
   -0.9457    2.6276   -0.5556 H   0  0  0  0  0  0  0  0  0  0  0  0
   -1.6039    2.3960   -2.7585 H   0  0  0  0  0  0  0  0  0  0  0  0
   -0.0740    1.6451   -3.3042 H   0  0  0  0  0  0  0  0  0  0  0  0
   -0.3762    3.9922   -4.1566 H   0  0  0  0  0  0  0  0  0  0  0  0
   -0.3765    4.5955   -2.4673 H   0  0  0  0  0  0  0  0  0  0  0  0
    1.8684    4.8863   -3.2143 H   0  0  0  0  0  0  0  0  0  0  0  0
    3.0271    1.3573   -4.5072 H   0  0  0  0  0  0  0  0  0  0  0  0
    4.0304    2.7857   -4.0432 H   0  0  0  0  0  0  0  0  0  0  0  0
    3.8303    1.7556   -1.9243 H   0  0  0  0  0  0  0  0  0  0  0  0
    2.2126    1.0480   -2.3407 H   0  0  0  0  0  0  0  0  0  0  0  0
    2.9728    3.8665   -1.5122 H   0  0  0  0  0  0  0  0  0  0  0  0
    0.9307    3.8747   -0.2848 H   0  0  0  0  0  0  0  0  0  0  0  0
    1.7187    2.3188    0.0512 H   0  0  0  0  0  0  0  0  0  0  0  0
  1  2  2  0
  2  3  1  0
  3  4  2  0
  4  5  1  0
  5  6  2  0
  4  7  1  0
  7  8  1  0
  8  9  2  0
  9 10  1  0
 10 11  2  0
 11 12  1  0
 12 13  2  0
 12 14  1  0
 14 15  1  0
 15 16  1  0
 16 17  1  0
 17 18  1  0
 18 19  1  0
 19 20  1  0
 20 21  1  0
 21 22  1  0
 22 23  1  0
  6  1  1  0
  8 13  1  0
 23 15  1  0
 22 18  1  0
  1 24  1  0
  2 25  1  0
  3 26  1  0
  5 27  1  0
  6 28  1  0
  9 29  1  0
 10 30  1  0
 14 31  1  0
 15 32  1  0
 16 33  1  0
 16 34  1  0
 17 35  1  0
 17 36  1  0
 18 37  1  0
 20 38  1  0
 20 39  1  0
 21 40  1  0
 21 41  1  0
 22 42  1  0
 23 43  1  0
 23 44  1  0
M  END
$$$$
