
     RDKit          3D

 40 43  0  0  0  0  0  0  0  0999 V2000
   -2.7027   -3.0884   -0.9517 O   0  0  0  0  0  0  0  0  0  0  0  0
   -2.3109   -2.6999   -2.3495 S   0  0  0  0  0  0  0  0  0  0  0  0
   -3.5144   -2.4871   -3.2237 O   0  0  0  0  0  0  0  0  0  0  0  0
   -1.1943   -3.8609   -3.0568 C   0  0  0  0  0  0  0  0  0  0  0  0
   -0.1133   -3.0004   -3.7162 C   0  0  0  0  0  0  0  0  0  0  0  0
    0.0104   -1.6504   -2.9761 C   0  0  0  0  0  0  0  0  0  0  0  0
   -1.2757   -1.3296   -2.3605 N   0  0  0  0  0  0  0  0  0  0  0  0
   -1.5701   -0.0833   -1.6893 C   0  0  0  0  0  0  0  0  0  0  0  0
   -2.8781    0.2120   -1.2591 C   0  0  0  0  0  0  0  0  0  0  0  0
   -3.1581    1.4144   -0.6062 C   0  0  0  0  0  0  0  0  0  0  0  0
   -2.1422    2.3414   -0.3735 C   0  0  0  0  0  0  0  0  0  0  0  0
   -0.8335    2.0733   -0.7978 C   0  0  0  0  0  0  0  0  0  0  0  0
   -0.5538    0.8646   -1.4549 C   0  0  0  0  0  0  0  0  0  0  0  0
    0.2735    3.0586   -0.5340 C   0  0  0  0  0  0  0  0  0  0  0  0
    1.2475    2.4915    0.3964 N   0  0  0  0  0  0  0  0  0  0  0  0
    0.9487    2.2768    1.7839 C   0  0  0  0  0  0  0  0  0  0  0  0
   -0.2487    2.6699    2.3161 N   0  0  0  0  0  0  0  0  0  0  0  0
   -0.5482    2.4670    3.6385 C   0  0  0  0  0  0  0  0  0  0  0  0
    0.3526    1.8591    4.4681 N   0  0  0  0  0  0  0  0  0  0  0  0
    1.5396    1.4688    3.9460 C   0  0  0  0  0  0  0  0  0  0  0  0
    2.5400    0.8570    4.6013 N   0  0  0  0  0  0  0  0  0  0  0  0
    3.4697    0.6928    3.6214 C   0  0  0  0  0  0  0  0  0  0  0  0
    3.0803    1.1728    2.4135 N   0  0  0  0  0  0  0  0  0  0  0  0
    1.8547    1.6605    2.6441 C   0  0  0  0  0  0  0  0  0  0  0  0
   -0.7470   -4.4804   -2.2508 H   0  0  0  0  0  0  0  0  0  0  0  0
   -1.7062   -4.5099   -3.7981 H   0  0  0  0  0  0  0  0  0  0  0  0
   -0.4109   -2.8032   -4.7692 H   0  0  0  0  0  0  0  0  0  0  0  0
    0.8612   -3.5341   -3.7254 H   0  0  0  0  0  0  0  0  0  0  0  0
    0.7857   -1.7306   -2.1838 H   0  0  0  0  0  0  0  0  0  0  0  0
    0.2990   -0.8562   -3.6974 H   0  0  0  0  0  0  0  0  0  0  0  0
   -3.6915   -0.4780   -1.4302 H   0  0  0  0  0  0  0  0  0  0  0  0
   -4.1677    1.6282   -0.2789 H   0  0  0  0  0  0  0  0  0  0  0  0
   -2.3769    3.2658    0.1393 H   0  0  0  0  0  0  0  0  0  0  0  0
    0.4628    0.6667   -1.7670 H   0  0  0  0  0  0  0  0  0  0  0  0
   -0.1179    4.0163   -0.1267 H   0  0  0  0  0  0  0  0  0  0  0  0
    0.7777    3.2944   -1.4960 H   0  0  0  0  0  0  0  0  0  0  0  0
    2.1882    2.2342    0.0229 H   0  0  0  0  0  0  0  0  0  0  0  0
   -1.5044    2.7888    4.0272 H   0  0  0  0  0  0  0  0  0  0  0  0
    4.4297    0.2228    3.7906 H   0  0  0  0  0  0  0  0  0  0  0  0
    3.6204    1.1573    1.5207 H   0  0  0  0  0  0  0  0  0  0  0  0
  1  2  2  0
  2  3  2  0
  2  4  1  0
  4  5  1  0
  5  6  1  0
  6  7  1  0
  7  8  1  0
  8  9  2  0
  9 10  1  0
 10 11  2  0
 11 12  1  0
 12 13  2  0
 12 14  1  0
 14 15  1  0
 15 16  1  0
 16 17  2  0
 17 18  1  0
 18 19  2  0
 19 20  1  0
 20 21  1  0
 21 22  2  0
 22 23  1  0
 23 24  1  0
  7  2  1  0
  8 13  1  0
 16 24  1  0
 24 20  2  0
  4 25  1  0
  4 26  1  0
  5 27  1  0
  5 28  1  0
  6 29  1  0
  6 30  1  0
  9 31  1  0
 10 32  1  0
 11 33  1  0
 13 34  1  0
 14 35  1  0
 14 36  1  0
 15 37  1  0
 18 38  1  0
 22 39  1  0
 23 40  1  0
M  END
$$$$
