
     RDKit          3D

 40 42  0  0  0  0  0  0  0  0999 V2000
   -1.3095    1.9179    1.7192 O   0  0  0  0  0  0  0  0  0  0  0  0
   -0.7525    1.0658    0.9739 C   0  0  0  0  0  0  0  0  0  0  0  0
   -1.1913   -0.3031    1.0060 N   0  0  0  0  0  0  0  0  0  0  0  0
   -1.8968   -0.8902    2.1134 C   0  0  0  0  0  0  0  0  0  0  0  0
   -2.7999   -1.9369    1.8785 C   0  0  0  0  0  0  0  0  0  0  0  0
   -3.4817   -2.5369    2.9408 C   0  0  0  0  0  0  0  0  0  0  0  0
   -3.2630   -2.1142    4.2566 C   0  0  0  0  0  0  0  0  0  0  0  0
   -2.3420   -1.0774    4.4989 C   0  0  0  0  0  0  0  0  0  0  0  0
   -1.6605   -0.4761    3.4362 C   0  0  0  0  0  0  0  0  0  0  0  0
   -3.9751   -2.7484    5.2863 O   0  0  0  0  0  0  0  0  0  0  0  0
   -3.8396   -2.4471    6.6722 C   0  0  0  0  0  0  0  0  0  0  0  0
   -2.5654   -2.7701    7.1030 F   0  0  0  0  0  0  0  0  0  0  0  0
   -4.7574   -3.1912    7.3879 F   0  0  0  0  0  0  0  0  0  0  0  0
    0.3126    1.5008    0.0377 C   0  0  0  0  0  0  0  0  0  0  0  0
    1.2083    0.5713   -0.5207 C   0  0  0  0  0  0  0  0  0  0  0  0
    2.2122    0.9911   -1.3984 C   0  0  0  0  0  0  0  0  0  0  0  0
    2.3349    2.3475   -1.7426 C   0  0  0  0  0  0  0  0  0  0  0  0
    1.4661    3.2796   -1.1599 C   0  0  0  0  0  0  0  0  0  0  0  0
    0.4616    2.8620   -0.2824 C   0  0  0  0  0  0  0  0  0  0  0  0
    3.3744    2.8062   -2.6235 N   0  0  0  0  0  0  0  0  0  0  0  0
    3.8439    2.0765   -3.7663 C   0  0  0  0  0  0  0  0  0  0  0  0
    3.1476    1.0100   -4.2486 N   0  0  0  0  0  0  0  0  0  0  0  0
    3.5723    0.3337   -5.3472 C   0  0  0  0  0  0  0  0  0  0  0  0
    4.7334    0.7360   -6.0049 C   0  0  0  0  0  0  0  0  0  0  0  0
    5.4287    1.8376   -5.5090 C   0  0  0  0  0  0  0  0  0  0  0  0
    4.9717    2.4874   -4.4069 N   0  0  0  0  0  0  0  0  0  0  0  0
   -1.0941   -0.8701    0.1336 H   0  0  0  0  0  0  0  0  0  0  0  0
   -2.9828   -2.2820    0.8686 H   0  0  0  0  0  0  0  0  0  0  0  0
   -4.1830   -3.3372    2.7407 H   0  0  0  0  0  0  0  0  0  0  0  0
   -2.1396   -0.7327    5.5034 H   0  0  0  0  0  0  0  0  0  0  0  0
   -0.9340    0.2958    3.6530 H   0  0  0  0  0  0  0  0  0  0  0  0
   -4.0385   -1.3695    6.8520 H   0  0  0  0  0  0  0  0  0  0  0  0
    1.1553   -0.4778   -0.2610 H   0  0  0  0  0  0  0  0  0  0  0  0
    2.9095    0.2585   -1.7825 H   0  0  0  0  0  0  0  0  0  0  0  0
    1.5612    4.3322   -1.3956 H   0  0  0  0  0  0  0  0  0  0  0  0
   -0.2035    3.6050    0.1400 H   0  0  0  0  0  0  0  0  0  0  0  0
    3.7586    3.7667   -2.4737 H   0  0  0  0  0  0  0  0  0  0  0  0
    3.0065   -0.5137   -5.7107 H   0  0  0  0  0  0  0  0  0  0  0  0
    5.0842    0.2084   -6.8823 H   0  0  0  0  0  0  0  0  0  0  0  0
    6.3300    2.1784   -6.0007 H   0  0  0  0  0  0  0  0  0  0  0  0
  1  2  2  0
  2  3  1  0
  3  4  1  0
  4  5  2  0
  5  6  1  0
  6  7  2  0
  7  8  1  0
  8  9  2  0
  7 10  1  0
 10 11  1  0
 11 12  1  0
 11 13  1  0
  2 14  1  0
 14 15  2  0
 15 16  1  0
 16 17  2  0
 17 18  1  0
 18 19  2  0
 17 20  1  0
 20 21  1  0
 21 22  2  0
 22 23  1  0
 23 24  2  0
 24 25  1  0
 25 26  2  0
  4  9  1  0
 14 19  1  0
 21 26  1  0
  3 27  1  0
  5 28  1  0
  6 29  1  0
  8 30  1  0
  9 31  1  0
 11 32  1  0
 15 33  1  0
 16 34  1  0
 18 35  1  0
 19 36  1  0
 20 37  1  0
 23 38  1  0
 24 39  1  0
 25 40  1  0
M  END
$$$$
