
     RDKit          3D

 43 45  0  0  0  0  0  0  0  0999 V2000
   -0.5913   -5.3048    3.2880 C   0  0  0  0  0  0  0  0  0  0  0  0
   -1.1298   -3.9862    2.9481 N   0  0  0  0  0  0  0  0  0  0  0  0
   -2.2749   -3.4278    3.6786 C   0  0  0  0  0  0  0  0  0  0  0  0
   -2.0642   -1.9339    3.9511 C   0  0  0  0  0  0  0  0  0  0  0  0
   -1.7179   -1.1915    2.6825 C   0  0  0  0  0  0  0  0  0  0  0  0
   -2.0800    0.1550    2.5353 C   0  0  0  0  0  0  0  0  0  0  0  0
   -1.7060    0.8669    1.3932 C   0  0  0  0  0  0  0  0  0  0  0  0
   -0.9380    0.2504    0.3908 C   0  0  0  0  0  0  0  0  0  0  0  0
   -0.5797   -1.0979    0.5336 C   0  0  0  0  0  0  0  0  0  0  0  0
   -0.9554   -1.8204    1.6783 C   0  0  0  0  0  0  0  0  0  0  0  0
   -0.5730   -3.2375    1.8530 C   0  0  0  0  0  0  0  0  0  0  0  0
    0.2449   -3.7815    1.0609 O   0  0  0  0  0  0  0  0  0  0  0  0
   -0.5594    0.9567   -0.8026 N   0  0  0  0  0  0  0  0  0  0  0  0
   -0.1938    2.3452   -0.8322 C   0  0  0  0  0  0  0  0  0  0  0  0
   -0.0132    2.9842    0.2394 O   0  0  0  0  0  0  0  0  0  0  0  0
    0.0592    3.0299   -2.1417 C   0  0  0  0  0  0  0  0  0  0  0  0
    1.4902    2.9938   -2.4668 N   0  0  0  0  0  0  0  0  0  0  0  0
    2.3886    3.9733   -1.8390 C   0  0  0  0  0  0  0  0  0  0  0  0
    3.6753    4.1466   -2.6517 C   0  0  0  0  0  0  0  0  0  0  0  0
    4.3721    2.7977   -2.8373 C   0  0  0  0  0  0  0  0  0  0  0  0
    3.4619    1.8267   -3.4366 N   0  0  0  0  0  0  0  0  0  0  0  0
    2.0528    1.8796   -3.1892 C   0  0  0  0  0  0  0  0  0  0  0  0
    1.3120    0.9608   -3.6323 O   0  0  0  0  0  0  0  0  0  0  0  0
   -0.6739   -5.9815    2.4114 H   0  0  0  0  0  0  0  0  0  0  0  0
    0.4765   -5.2082    3.5771 H   0  0  0  0  0  0  0  0  0  0  0  0
   -1.1453   -5.7640    4.1336 H   0  0  0  0  0  0  0  0  0  0  0  0
   -2.4271   -3.9528    4.6462 H   0  0  0  0  0  0  0  0  0  0  0  0
   -3.1932   -3.5615    3.0663 H   0  0  0  0  0  0  0  0  0  0  0  0
   -2.9911   -1.5192    4.4037 H   0  0  0  0  0  0  0  0  0  0  0  0
   -1.2339   -1.8059    4.6784 H   0  0  0  0  0  0  0  0  0  0  0  0
   -2.6567    0.6538    3.3043 H   0  0  0  0  0  0  0  0  0  0  0  0
   -2.0338    1.8922    1.2872 H   0  0  0  0  0  0  0  0  0  0  0  0
   -0.0007   -1.5772   -0.2465 H   0  0  0  0  0  0  0  0  0  0  0  0
   -0.4540    0.4046   -1.6831 H   0  0  0  0  0  0  0  0  0  0  0  0
   -0.5380    2.5499   -2.9464 H   0  0  0  0  0  0  0  0  0  0  0  0
   -0.2908    4.0831   -2.0802 H   0  0  0  0  0  0  0  0  0  0  0  0
    1.8849    4.9611   -1.7611 H   0  0  0  0  0  0  0  0  0  0  0  0
    2.6408    3.6322   -0.8113 H   0  0  0  0  0  0  0  0  0  0  0  0
    4.3574    4.8471   -2.1238 H   0  0  0  0  0  0  0  0  0  0  0  0
    3.4303    4.5789   -3.6466 H   0  0  0  0  0  0  0  0  0  0  0  0
    5.2587    2.9285   -3.4941 H   0  0  0  0  0  0  0  0  0  0  0  0
    4.7187    2.4140   -1.8535 H   0  0  0  0  0  0  0  0  0  0  0  0
    3.8611    1.0123   -3.9549 H   0  0  0  0  0  0  0  0  0  0  0  0
  1  2  1  0
  2  3  1  0
  3  4  1  0
  4  5  1  0
  5  6  2  0
  6  7  1  0
  7  8  2  0
  8  9  1  0
  9 10  2  0
 10 11  1  0
 11 12  2  0
  8 13  1  0
 13 14  1  0
 14 15  2  0
 14 16  1  0
 16 17  1  0
 17 18  1  0
 18 19  1  0
 19 20  1  0
 20 21  1  0
 21 22  1  0
 22 23  2  0
 11  2  1  0
  5 10  1  0
 22 17  1  0
  1 24  1  0
  1 25  1  0
  1 26  1  0
  3 27  1  0
  3 28  1  0
  4 29  1  0
  4 30  1  0
  6 31  1  0
  7 32  1  0
  9 33  1  0
 13 34  1  0
 16 35  1  0
 16 36  1  0
 18 37  1  0
 18 38  1  0
 19 39  1  0
 19 40  1  0
 20 41  1  0
 20 42  1  0
 21 43  1  0
M  END
$$$$
