
     RDKit          3D

 36 39  0  0  0  0  0  0  0  0999 V2000
   -1.2307    1.6162   -3.1464 O   0  0  0  0  0  0  0  0  0  0  0  0
   -1.5504    1.0156   -2.0840 C   0  0  0  0  0  0  0  0  0  0  0  0
   -2.3823   -0.1042   -2.1635 C   0  0  0  0  0  0  0  0  0  0  0  0
   -2.7359   -0.7848   -1.0015 C   0  0  0  0  0  0  0  0  0  0  0  0
   -2.2733   -0.3360    0.2393 C   0  0  0  0  0  0  0  0  0  0  0  0
   -1.4589    0.8051    0.2826 C   0  0  0  0  0  0  0  0  0  0  0  0
   -1.0864    1.4501   -0.8667 N   0  0  0  0  0  0  0  0  0  0  0  0
   -0.1564    2.5904   -0.7835 C   0  0  0  0  0  0  0  0  0  0  0  0
    1.1916    2.2147   -1.3376 C   0  0  0  0  0  0  0  0  0  0  0  0
    1.6919    2.7430   -2.4721 N   0  0  0  0  0  0  0  0  0  0  0  0
    2.8254    2.0294   -2.6503 C   0  0  0  0  0  0  0  0  0  0  0  0
    3.0085    1.1017   -1.6906 N   0  0  0  0  0  0  0  0  0  0  0  0
    1.9855    1.2316   -0.8665 N   0  0  0  0  0  0  0  0  0  0  0  0
    1.7756    0.3980    0.2789 C   0  0  0  0  0  0  0  0  0  0  0  0
    1.6796   -0.9926    0.1244 C   0  0  0  0  0  0  0  0  0  0  0  0
    1.4381   -1.8077    1.2346 C   0  0  0  0  0  0  0  0  0  0  0  0
    1.3081   -1.2396    2.5053 C   0  0  0  0  0  0  0  0  0  0  0  0
    1.4262    0.1439    2.6682 C   0  0  0  0  0  0  0  0  0  0  0  0
    1.6633    0.9620    1.5590 C   0  0  0  0  0  0  0  0  0  0  0  0
   -2.6210   -1.0643    1.4749 C   0  0  0  0  0  0  0  0  0  0  0  0
   -2.2063   -0.7164    2.7084 N   0  0  0  0  0  0  0  0  0  0  0  0
   -2.7166   -1.6122    3.5382 N   0  0  0  0  0  0  0  0  0  0  0  0
   -3.4238   -2.4742    2.7839 C   0  0  0  0  0  0  0  0  0  0  0  0
   -3.3679   -2.1419    1.5168 O   0  0  0  0  0  0  0  0  0  0  0  0
   -2.7456   -0.4519   -3.1229 H   0  0  0  0  0  0  0  0  0  0  0  0
   -3.3689   -1.6606   -1.0731 H   0  0  0  0  0  0  0  0  0  0  0  0
   -1.1082    1.1640    1.2424 H   0  0  0  0  0  0  0  0  0  0  0  0
   -0.0348    2.9432    0.2629 H   0  0  0  0  0  0  0  0  0  0  0  0
   -0.5694    3.4503   -1.3548 H   0  0  0  0  0  0  0  0  0  0  0  0
    3.5028    2.1760   -3.4805 H   0  0  0  0  0  0  0  0  0  0  0  0
    1.7682   -1.4384   -0.8583 H   0  0  0  0  0  0  0  0  0  0  0  0
    1.3483   -2.8790    1.1097 H   0  0  0  0  0  0  0  0  0  0  0  0
    1.1179   -1.8711    3.3634 H   0  0  0  0  0  0  0  0  0  0  0  0
    1.3302    0.5825    3.6529 H   0  0  0  0  0  0  0  0  0  0  0  0
    1.7555    2.0319    1.6943 H   0  0  0  0  0  0  0  0  0  0  0  0
   -3.9645   -3.3261    3.1735 H   0  0  0  0  0  0  0  0  0  0  0  0
  1  2  2  0
  2  3  1  0
  3  4  2  0
  4  5  1  0
  5  6  2  0
  6  7  1  0
  7  8  1  0
  8  9  1  0
  9 10  2  0
 10 11  1  0
 11 12  2  0
 12 13  1  0
 13 14  1  0
 14 15  2  0
 15 16  1  0
 16 17  2  0
 17 18  1  0
 18 19  2  0
  5 20  1  0
 20 21  2  0
 21 22  1  0
 22 23  2  0
 23 24  1  0
  7  2  1  0
 13  9  1  0
 14 19  1  0
 24 20  1  0
  3 25  1  0
  4 26  1  0
  6 27  1  0
  8 28  1  0
  8 29  1  0
 11 30  1  0
 15 31  1  0
 16 32  1  0
 17 33  1  0
 18 34  1  0
 19 35  1  0
 23 36  1  0
M  END
$$$$
