
     RDKit          3D

 47 48  0  0  0  0  0  0  0  0999 V2000
    0.0864    2.1791    1.2392 C   0  0  0  0  0  0  0  0  0  0  0  0
    0.4974    0.9983    0.4115 C   0  0  0  0  0  0  0  0  0  0  0  0
   -0.2760    0.4781   -0.6063 C   0  0  0  0  0  0  0  0  0  0  0  0
    0.4718   -0.5650   -1.1112 C   0  0  0  0  0  0  0  0  0  0  0  0
    1.6381   -0.6447   -0.4457 N   0  0  0  0  0  0  0  0  0  0  0  0
    1.6710    0.3104    0.4757 N   0  0  0  0  0  0  0  0  0  0  0  0
    2.7926    0.4422    1.4407 C   0  0  0  0  0  0  0  0  0  0  0  0
    4.0292   -0.3274    0.9161 C   0  0  0  0  0  0  0  0  0  0  0  0
    3.2082    1.9184    1.6267 C   0  0  0  0  0  0  0  0  0  0  0  0
    2.3822   -0.1713    2.7918 C   0  0  0  0  0  0  0  0  0  0  0  0
    0.1107   -1.4707   -2.2192 C   0  0  0  0  0  0  0  0  0  0  0  0
    1.0400   -2.0650   -2.8304 O   0  0  0  0  0  0  0  0  0  0  0  0
   -1.2609   -1.7114   -2.6038 N   0  0  0  0  0  0  0  0  0  0  0  0
   -1.5429   -2.3065   -3.9120 C   0  0  0  0  0  0  0  0  0  0  0  0
   -2.3412   -1.5797   -1.6591 C   0  0  0  0  0  0  0  0  0  0  0  0
   -3.3672   -0.6654   -1.9368 C   0  0  0  0  0  0  0  0  0  0  0  0
   -4.3968   -0.4561   -1.0239 C   0  0  0  0  0  0  0  0  0  0  0  0
   -4.4120   -1.1489    0.1841 C   0  0  0  0  0  0  0  0  0  0  0  0
   -3.4039   -2.0775    0.4894 C   0  0  0  0  0  0  0  0  0  0  0  0
   -3.4623   -2.8014    1.8098 C   0  0  0  0  0  0  0  0  0  0  0  0
   -2.3803   -2.3381   -0.4595 C   0  0  0  0  0  0  0  0  0  0  0  0
   -1.3276   -3.3872   -0.1827 C   0  0  0  0  0  0  0  0  0  0  0  0
    0.6706    3.0722    0.9370 H   0  0  0  0  0  0  0  0  0  0  0  0
    0.2198    1.9736    2.3181 H   0  0  0  0  0  0  0  0  0  0  0  0
   -0.9890    2.4044    1.0761 H   0  0  0  0  0  0  0  0  0  0  0  0
   -1.2406    0.8338   -0.9393 H   0  0  0  0  0  0  0  0  0  0  0  0
    4.3420    0.0727   -0.0726 H   0  0  0  0  0  0  0  0  0  0  0  0
    4.8860   -0.2347    1.6185 H   0  0  0  0  0  0  0  0  0  0  0  0
    3.8044   -1.4100    0.8026 H   0  0  0  0  0  0  0  0  0  0  0  0
    3.2655    2.4303    0.6423 H   0  0  0  0  0  0  0  0  0  0  0  0
    2.5069    2.4671    2.2845 H   0  0  0  0  0  0  0  0  0  0  0  0
    4.2038    1.9923    2.1155 H   0  0  0  0  0  0  0  0  0  0  0  0
    1.5158    0.3610    3.2308 H   0  0  0  0  0  0  0  0  0  0  0  0
    3.2221   -0.1180    3.5179 H   0  0  0  0  0  0  0  0  0  0  0  0
    2.0966   -1.2371    2.6590 H   0  0  0  0  0  0  0  0  0  0  0  0
   -1.2994   -3.3895   -3.8880 H   0  0  0  0  0  0  0  0  0  0  0  0
   -2.6137   -2.1880   -4.1831 H   0  0  0  0  0  0  0  0  0  0  0  0
   -0.9332   -1.8100   -4.6966 H   0  0  0  0  0  0  0  0  0  0  0  0
   -3.3501   -0.0933   -2.8560 H   0  0  0  0  0  0  0  0  0  0  0  0
   -5.1781    0.2592   -1.2462 H   0  0  0  0  0  0  0  0  0  0  0  0
   -5.2152   -0.9575    0.8852 H   0  0  0  0  0  0  0  0  0  0  0  0
   -4.1694   -2.3107    2.5123 H   0  0  0  0  0  0  0  0  0  0  0  0
   -2.4623   -2.8029    2.2924 H   0  0  0  0  0  0  0  0  0  0  0  0
   -3.7988   -3.8468    1.6480 H   0  0  0  0  0  0  0  0  0  0  0  0
   -0.9028   -3.7948   -1.1229 H   0  0  0  0  0  0  0  0  0  0  0  0
   -1.7587   -4.2545    0.3580 H   0  0  0  0  0  0  0  0  0  0  0  0
   -0.5126   -2.9458    0.4280 H   0  0  0  0  0  0  0  0  0  0  0  0
  1  2  1  0
  2  3  2  0
  3  4  1  0
  4  5  2  0
  5  6  1  0
  6  7  1  0
  7  8  1  0
  7  9  1  0
  7 10  1  0
  4 11  1  0
 11 12  2  0
 11 13  1  0
 13 14  1  0
 13 15  1  0
 15 16  2  0
 16 17  1  0
 17 18  2  0
 18 19  1  0
 19 20  1  0
 19 21  2  0
 21 22  1  0
  6  2  1  0
 15 21  1  0
  1 23  1  0
  1 24  1  0
  1 25  1  0
  3 26  1  0
  8 27  1  0
  8 28  1  0
  8 29  1  0
  9 30  1  0
  9 31  1  0
  9 32  1  0
 10 33  1  0
 10 34  1  0
 10 35  1  0
 14 36  1  0
 14 37  1  0
 14 38  1  0
 16 39  1  0
 17 40  1  0
 18 41  1  0
 20 42  1  0
 20 43  1  0
 20 44  1  0
 22 45  1  0
 22 46  1  0
 22 47  1  0
M  END
$$$$
