
     RDKit          3D

 52 57  0  0  0  0  0  0  0  0999 V2000
   -4.2308    2.9674   -4.4539 C   0  0  0  0  0  0  0  0  0  0  0  0
   -3.2199    1.9940   -4.0618 N   0  0  0  0  0  0  0  0  0  0  0  0
   -2.4361    1.1903   -4.9593 C   0  0  0  0  0  0  0  0  0  0  0  0
   -2.7471    0.9472   -6.1552 O   0  0  0  0  0  0  0  0  0  0  0  0
   -1.2207    0.7444   -4.2835 C   0  0  0  0  0  0  0  0  0  0  0  0
   -0.1353   -0.0416   -4.6637 C   0  0  0  0  0  0  0  0  0  0  0  0
    0.8993   -0.2305   -3.7199 C   0  0  0  0  0  0  0  0  0  0  0  0
    0.8306    0.3676   -2.4347 C   0  0  0  0  0  0  0  0  0  0  0  0
   -0.2907    1.1552   -2.0776 C   0  0  0  0  0  0  0  0  0  0  0  0
   -0.5077    1.7991   -0.8304 C   0  0  0  0  0  0  0  0  0  0  0  0
   -1.6809    2.5861   -0.6510 C   0  0  0  0  0  0  0  0  0  0  0  0
   -2.6385    2.7199   -1.6816 C   0  0  0  0  0  0  0  0  0  0  0  0
   -2.4095    2.0463   -2.8811 C   0  0  0  0  0  0  0  0  0  0  0  0
   -1.2744    1.3046   -3.0428 C   0  0  0  0  0  0  0  0  0  0  0  0
    0.5990    1.5664    0.5289 S   0  0  0  0  0  0  0  0  0  0  0  0
    1.8833    2.2930    0.2422 O   0  0  0  0  0  0  0  0  0  0  0  0
   -0.0037    2.1114    1.7948 O   0  0  0  0  0  0  0  0  0  0  0  0
    0.9026   -0.1419    0.7184 N   0  0  0  0  0  0  0  0  0  0  0  0
   -0.3346   -0.8856    0.9838 C   0  0  0  0  0  0  0  0  0  0  0  0
   -0.2888   -2.0469    0.0570 C   0  0  0  0  0  0  0  0  0  0  0  0
   -1.1912   -2.1055   -1.0205 C   0  0  0  0  0  0  0  0  0  0  0  0
   -1.0124   -3.0362   -2.0419 C   0  0  0  0  0  0  0  0  0  0  0  0
    0.0791   -3.9002   -2.0115 C   0  0  0  0  0  0  0  0  0  0  0  0
    0.9813   -3.8531   -0.9469 C   0  0  0  0  0  0  0  0  0  0  0  0
    0.8068   -2.9397    0.1162 C   0  0  0  0  0  0  0  0  0  0  0  0
    1.7406   -2.9929    1.2946 C   0  0  0  0  0  0  0  0  0  0  0  0
    2.1170   -4.2790    1.7470 C   0  0  0  0  0  0  0  0  0  0  0  0
    2.9877   -4.4491    2.8203 C   0  0  0  0  0  0  0  0  0  0  0  0
    3.5006   -3.3427    3.4820 C   0  0  0  0  0  0  0  0  0  0  0  0
    3.1309   -2.0614    3.0847 C   0  0  0  0  0  0  0  0  0  0  0  0
    2.2433   -1.8508    2.0103 C   0  0  0  0  0  0  0  0  0  0  0  0
    1.9292   -0.3818    1.7358 C   0  0  0  0  0  0  0  0  0  0  0  0
   -3.7373    3.9055   -4.7833 H   0  0  0  0  0  0  0  0  0  0  0  0
   -4.8430    2.5623   -5.2866 H   0  0  0  0  0  0  0  0  0  0  0  0
   -4.9010    3.1840   -3.5965 H   0  0  0  0  0  0  0  0  0  0  0  0
   -0.0838   -0.4870   -5.6484 H   0  0  0  0  0  0  0  0  0  0  0  0
    1.7584   -0.8335   -3.9832 H   0  0  0  0  0  0  0  0  0  0  0  0
    1.6515    0.2157   -1.7488 H   0  0  0  0  0  0  0  0  0  0  0  0
   -1.8629    3.0847    0.2917 H   0  0  0  0  0  0  0  0  0  0  0  0
   -3.5304    3.3137   -1.5337 H   0  0  0  0  0  0  0  0  0  0  0  0
   -1.2456   -0.2739    0.8005 H   0  0  0  0  0  0  0  0  0  0  0  0
   -0.4083   -1.2367    2.0382 H   0  0  0  0  0  0  0  0  0  0  0  0
   -2.0104   -1.4006   -1.0941 H   0  0  0  0  0  0  0  0  0  0  0  0
   -1.7037   -3.0660   -2.8742 H   0  0  0  0  0  0  0  0  0  0  0  0
    0.2297   -4.6075   -2.8169 H   0  0  0  0  0  0  0  0  0  0  0  0
    1.8267   -4.5293   -0.9622 H   0  0  0  0  0  0  0  0  0  0  0  0
    1.7192   -5.1705    1.2787 H   0  0  0  0  0  0  0  0  0  0  0  0
    3.2618   -5.4456    3.1421 H   0  0  0  0  0  0  0  0  0  0  0  0
    4.1793   -3.4771    4.3145 H   0  0  0  0  0  0  0  0  0  0  0  0
    3.5385   -1.2180    3.6301 H   0  0  0  0  0  0  0  0  0  0  0  0
    1.6201    0.0991    2.6920 H   0  0  0  0  0  0  0  0  0  0  0  0
    2.8739    0.1037    1.4075 H   0  0  0  0  0  0  0  0  0  0  0  0
  1  2  1  0
  2  3  1  0
  3  4  2  0
  3  5  1  0
  5  6  2  0
  6  7  1  0
  7  8  2  0
  8  9  1  0
  9 10  2  0
 10 11  1  0
 11 12  2  0
 12 13  1  0
 13 14  2  0
 10 15  1  0
 15 16  2  0
 15 17  2  0
 15 18  1  0
 18 19  1  0
 19 20  1  0
 20 21  2  0
 21 22  1  0
 22 23  2  0
 23 24  1  0
 24 25  2  0
 25 26  1  0
 26 27  2  0
 27 28  1  0
 28 29  2  0
 29 30  1  0
 30 31  2  0
 31 32  1  0
 13  2  1  0
 14  5  1  0
 14  9  1  0
 32 18  1  0
 20 25  1  0
 26 31  1  0
  1 33  1  0
  1 34  1  0
  1 35  1  0
  6 36  1  0
  7 37  1  0
  8 38  1  0
 11 39  1  0
 12 40  1  0
 19 41  1  0
 19 42  1  0
 21 43  1  0
 22 44  1  0
 23 45  1  0
 24 46  1  0
 27 47  1  0
 28 48  1  0
 29 49  1  0
 30 50  1  0
 32 51  1  0
 32 52  1  0
M  END
$$$$
