
     RDKit          3D

 51 53  0  0  0  0  0  0  0  0999 V2000
   -0.6610    2.5647    2.6237 C   0  0  0  0  0  0  0  0  0  0  0  0
   -1.1264    3.1215    1.3476 N   0  0  0  0  0  0  0  0  0  0  0  0
   -2.2470    4.0678    1.3295 C   0  0  0  0  0  0  0  0  0  0  0  0
   -0.4976    2.7587    0.0965 C   0  0  0  0  0  0  0  0  0  0  0  0
   -0.8988    3.2953   -0.9734 O   0  0  0  0  0  0  0  0  0  0  0  0
    0.6075    1.7202    0.0305 C   0  0  0  0  0  0  0  0  0  0  0  0
    1.3294    1.7902   -1.2432 N   0  0  0  0  0  0  0  0  0  0  0  0
    2.7098    1.4130   -1.3327 C   0  0  0  0  0  0  0  0  0  0  0  0
    3.4949    1.6352   -0.3717 O   0  0  0  0  0  0  0  0  0  0  0  0
    3.2024    0.6697   -2.5334 C   0  0  0  0  0  0  0  0  0  0  0  0
    2.7390   -0.7509   -2.4499 C   0  0  0  0  0  0  0  0  0  0  0  0
    3.4801   -1.7569   -1.8348 C   0  0  0  0  0  0  0  0  0  0  0  0
    2.5490   -3.1558   -1.8430 S   0  0  0  0  0  0  0  0  0  0  0  0
    1.2424   -2.4239   -2.6191 C   0  0  0  0  0  0  0  0  0  0  0  0
    1.4985   -1.1207   -2.8699 N   0  0  0  0  0  0  0  0  0  0  0  0
   -0.0038   -3.0763   -2.9506 N   0  0  0  0  0  0  0  0  0  0  0  0
   -0.2128   -4.4761   -2.5414 C   0  0  0  0  0  0  0  0  0  0  0  0
   -1.6991   -4.8473   -2.4971 C   0  0  0  0  0  0  0  0  0  0  0  0
   -2.3655   -4.5315   -3.8328 C   0  0  0  0  0  0  0  0  0  0  0  0
   -2.1804   -3.1247   -4.1643 N   0  0  0  0  0  0  0  0  0  0  0  0
   -0.9812   -2.4332   -3.8015 C   0  0  0  0  0  0  0  0  0  0  0  0
   -0.8046   -1.2568   -4.2178 O   0  0  0  0  0  0  0  0  0  0  0  0
    0.0623    0.3181    0.2019 C   0  0  0  0  0  0  0  0  0  0  0  0
    0.7288   -0.5955    1.0378 C   0  0  0  0  0  0  0  0  0  0  0  0
    0.2675   -1.9094    1.1591 C   0  0  0  0  0  0  0  0  0  0  0  0
   -0.8555   -2.3269    0.4417 C   0  0  0  0  0  0  0  0  0  0  0  0
   -1.5123   -1.4350   -0.4089 C   0  0  0  0  0  0  0  0  0  0  0  0
   -1.0503   -0.1228   -0.5404 C   0  0  0  0  0  0  0  0  0  0  0  0
   -1.2611    2.9385    3.4795 H   0  0  0  0  0  0  0  0  0  0  0  0
    0.3955    2.8557    2.8006 H   0  0  0  0  0  0  0  0  0  0  0  0
   -0.7490    1.4592    2.6112 H   0  0  0  0  0  0  0  0  0  0  0  0
   -2.6349    4.2712    2.3500 H   0  0  0  0  0  0  0  0  0  0  0  0
   -3.0769    3.6526    0.7195 H   0  0  0  0  0  0  0  0  0  0  0  0
   -1.9160    5.0318    0.8882 H   0  0  0  0  0  0  0  0  0  0  0  0
    1.3178    1.9510    0.8529 H   0  0  0  0  0  0  0  0  0  0  0  0
    0.7703    1.7689   -2.1265 H   0  0  0  0  0  0  0  0  0  0  0  0
    4.3126    0.7103   -2.5847 H   0  0  0  0  0  0  0  0  0  0  0  0
    2.8016    1.1409   -3.4562 H   0  0  0  0  0  0  0  0  0  0  0  0
    4.4685   -1.6522   -1.4074 H   0  0  0  0  0  0  0  0  0  0  0  0
    0.2046   -4.6461   -1.5255 H   0  0  0  0  0  0  0  0  0  0  0  0
    0.3175   -5.1461   -3.2523 H   0  0  0  0  0  0  0  0  0  0  0  0
   -1.8055   -5.9313   -2.2753 H   0  0  0  0  0  0  0  0  0  0  0  0
   -2.2033   -4.2760   -1.6877 H   0  0  0  0  0  0  0  0  0  0  0  0
   -1.9206   -5.1579   -4.6354 H   0  0  0  0  0  0  0  0  0  0  0  0
   -3.4511   -4.7587   -3.7697 H   0  0  0  0  0  0  0  0  0  0  0  0
   -2.8902   -2.6459   -4.7633 H   0  0  0  0  0  0  0  0  0  0  0  0
    1.6079   -0.2923    1.5928 H   0  0  0  0  0  0  0  0  0  0  0  0
    0.7839   -2.6057    1.8070 H   0  0  0  0  0  0  0  0  0  0  0  0
   -1.2099   -3.3447    0.5370 H   0  0  0  0  0  0  0  0  0  0  0  0
   -2.3729   -1.7636   -0.9766 H   0  0  0  0  0  0  0  0  0  0  0  0
   -1.5576    0.5465   -1.2234 H   0  0  0  0  0  0  0  0  0  0  0  0
  1  2  1  0
  2  3  1  0
  2  4  1  0
  4  5  2  0
  4  6  1  0
  6  7  1  0
  7  8  1  0
  8  9  2  0
  8 10  1  0
 10 11  1  0
 11 12  2  0
 12 13  1  0
 13 14  1  0
 14 15  2  0
 14 16  1  0
 16 17  1  0
 17 18  1  0
 18 19  1  0
 19 20  1  0
 20 21  1  0
 21 22  2  0
  6 23  1  0
 23 24  2  0
 24 25  1  0
 25 26  2  0
 26 27  1  0
 27 28  2  0
 15 11  1  0
 21 16  1  0
 23 28  1  0
  1 29  1  0
  1 30  1  0
  1 31  1  0
  3 32  1  0
  3 33  1  0
  3 34  1  0
  6 35  1  0
  7 36  1  0
 10 37  1  0
 10 38  1  0
 12 39  1  0
 17 40  1  0
 17 41  1  0
 18 42  1  0
 18 43  1  0
 19 44  1  0
 19 45  1  0
 20 46  1  0
 24 47  1  0
 25 48  1  0
 26 49  1  0
 27 50  1  0
 28 51  1  0
M  END
$$$$
