
     RDKit          3D

 37 40  0  0  0  0  0  0  0  0999 V2000
   -3.4375   -0.1027    1.5361 O   0  0  0  0  0  0  0  0  0  0  0  0
   -2.5302    0.4549    0.8649 C   0  0  0  0  0  0  0  0  0  0  0  0
   -2.3741    0.2648   -0.5348 N   0  0  0  0  0  0  0  0  0  0  0  0
   -1.1886    1.0082   -0.9547 C   0  0  0  0  0  0  0  0  0  0  0  0
   -1.4929    1.9910   -2.1113 C   0  0  0  0  0  0  0  0  0  0  0  0
   -0.5296    1.6369   -3.2634 C   0  0  0  0  0  0  0  0  0  0  0  0
    0.2162    0.4518   -2.7716 C   0  0  0  0  0  0  0  0  0  0  0  0
    1.1965   -0.2626   -3.4654 C   0  0  0  0  0  0  0  0  0  0  0  0
    1.8091   -1.3570   -2.8351 C   0  0  0  0  0  0  0  0  0  0  0  0
    1.4368   -1.7200   -1.5283 C   0  0  0  0  0  0  0  0  0  0  0  0
    0.4507   -0.9900   -0.8488 C   0  0  0  0  0  0  0  0  0  0  0  0
   -0.1466    0.0985   -1.4956 C   0  0  0  0  0  0  0  0  0  0  0  0
   -0.7420    1.6793    0.3138 C   0  0  0  0  0  0  0  0  0  0  0  0
    0.2644    2.4329    0.4066 O   0  0  0  0  0  0  0  0  0  0  0  0
   -1.5570    1.3240    1.4280 N   0  0  0  0  0  0  0  0  0  0  0  0
   -1.1018    1.2976    2.8172 C   0  0  0  0  0  0  0  0  0  0  0  0
   -0.0983    0.1900    3.0092 C   0  0  0  0  0  0  0  0  0  0  0  0
    1.1815    0.4033    2.5928 N   0  0  0  0  0  0  0  0  0  0  0  0
    2.1375   -0.5595    2.6585 C   0  0  0  0  0  0  0  0  0  0  0  0
    1.8211   -1.8232    3.1570 C   0  0  0  0  0  0  0  0  0  0  0  0
    3.0441   -3.0778    3.2329 Cl  0  0  0  0  0  0  0  0  0  0  0  0
    0.5196   -2.0781    3.5914 C   0  0  0  0  0  0  0  0  0  0  0  0
   -0.4541   -1.0766    3.5205 C   0  0  0  0  0  0  0  0  0  0  0  0
   -2.0793   -1.4487    4.0834 Cl  0  0  0  0  0  0  0  0  0  0  0  0
   -2.9524   -0.3662   -1.1335 H   0  0  0  0  0  0  0  0  0  0  0  0
   -1.3448    3.0493   -1.8024 H   0  0  0  0  0  0  0  0  0  0  0  0
   -2.5442    1.8798   -2.4574 H   0  0  0  0  0  0  0  0  0  0  0  0
    0.1751    2.4733   -3.4603 H   0  0  0  0  0  0  0  0  0  0  0  0
   -1.0907    1.3822   -4.1883 H   0  0  0  0  0  0  0  0  0  0  0  0
    1.4810    0.0227   -4.4700 H   0  0  0  0  0  0  0  0  0  0  0  0
    2.5710   -1.9223   -3.3557 H   0  0  0  0  0  0  0  0  0  0  0  0
    1.9128   -2.5631   -1.0447 H   0  0  0  0  0  0  0  0  0  0  0  0
    0.1617   -1.2631    0.1581 H   0  0  0  0  0  0  0  0  0  0  0  0
   -1.9705    1.1943    3.4996 H   0  0  0  0  0  0  0  0  0  0  0  0
   -0.6212    2.2693    3.0613 H   0  0  0  0  0  0  0  0  0  0  0  0
    3.1399   -0.3425    2.3141 H   0  0  0  0  0  0  0  0  0  0  0  0
    0.2638   -3.0555    3.9809 H   0  0  0  0  0  0  0  0  0  0  0  0
  1  2  2  0
  2  3  1  0
  3  4  1  0
  4  5  1  0
  5  6  1  0
  6  7  1  0
  7  8  2  0
  8  9  1  0
  9 10  2  0
 10 11  1  0
 11 12  2  0
  4 13  1  0
 13 14  2  0
 13 15  1  0
 15 16  1  0
 16 17  1  0
 17 18  2  0
 18 19  1  0
 19 20  2  0
 20 21  1  0
 20 22  1  0
 22 23  2  0
 23 24  1  0
 15  2  1  0
 12  4  1  0
  7 12  1  0
 17 23  1  0
  3 25  1  0
  5 26  1  0
  5 27  1  0
  6 28  1  0
  6 29  1  0
  8 30  1  0
  9 31  1  0
 10 32  1  0
 11 33  1  0
 16 34  1  0
 16 35  1  0
 19 36  1  0
 22 37  1  0
M  END
$$$$
