
     RDKit          3D

 41 43  0  0  0  0  0  0  0  0999 V2000
   -4.5323   -3.0569    4.7751 C   0  0  0  0  0  0  0  0  0  0  0  0
   -4.1241   -1.6951    4.7016 O   0  0  0  0  0  0  0  0  0  0  0  0
   -3.3889   -1.1444    3.6419 C   0  0  0  0  0  0  0  0  0  0  0  0
   -3.0234   -1.8944    2.5071 C   0  0  0  0  0  0  0  0  0  0  0  0
   -2.2882   -1.3006    1.4770 C   0  0  0  0  0  0  0  0  0  0  0  0
   -1.9018    0.0467    1.5628 C   0  0  0  0  0  0  0  0  0  0  0  0
   -2.2685    0.7931    2.6954 C   0  0  0  0  0  0  0  0  0  0  0  0
   -3.0071    0.1994    3.7230 C   0  0  0  0  0  0  0  0  0  0  0  0
   -1.1225    0.6660    0.4719 C   0  0  0  0  0  0  0  0  0  0  0  0
   -0.6776    1.9418    0.4961 N   0  0  0  0  0  0  0  0  0  0  0  0
   -0.0379    2.0632   -0.6819 C   0  0  0  0  0  0  0  0  0  0  0  0
   -0.0989    0.8709   -1.3679 C   0  0  0  0  0  0  0  0  0  0  0  0
   -0.7798    0.0314   -0.6298 O   0  0  0  0  0  0  0  0  0  0  0  0
    0.7014    3.2920   -1.1163 C   0  0  0  0  0  0  0  0  0  0  0  0
    2.0788    3.3803   -0.4483 C   0  0  0  0  0  0  0  0  0  0  0  0
    2.8771    2.1849   -0.7210 N   0  0  0  0  0  0  0  0  0  0  0  0
    3.3931    1.8816   -2.0267 C   0  0  0  0  0  0  0  0  0  0  0  0
    3.4283    2.7828   -2.9086 O   0  0  0  0  0  0  0  0  0  0  0  0
    3.8943    0.5251   -2.3486 C   0  0  0  0  0  0  0  0  0  0  0  0
    4.8088    0.3333   -3.3989 C   0  0  0  0  0  0  0  0  0  0  0  0
    5.2613   -0.9141   -3.6969 N   0  0  0  0  0  0  0  0  0  0  0  0
    4.8490   -2.0093   -3.0064 C   0  0  0  0  0  0  0  0  0  0  0  0
    3.9327   -1.8718   -1.9633 C   0  0  0  0  0  0  0  0  0  0  0  0
    3.5074   -2.9628   -1.2785 F   0  0  0  0  0  0  0  0  0  0  0  0
    3.4514   -0.6023   -1.6361 C   0  0  0  0  0  0  0  0  0  0  0  0
   -5.2041   -3.3008    3.9253 H   0  0  0  0  0  0  0  0  0  0  0  0
   -3.6427   -3.7228    4.7640 H   0  0  0  0  0  0  0  0  0  0  0  0
   -5.0855   -3.2184    5.7244 H   0  0  0  0  0  0  0  0  0  0  0  0
   -3.3043   -2.9339    2.4113 H   0  0  0  0  0  0  0  0  0  0  0  0
   -2.0211   -1.8976    0.6119 H   0  0  0  0  0  0  0  0  0  0  0  0
   -1.9863    1.8341    2.7864 H   0  0  0  0  0  0  0  0  0  0  0  0
   -3.2825    0.7867    4.5898 H   0  0  0  0  0  0  0  0  0  0  0  0
    0.3339    0.6454   -2.3347 H   0  0  0  0  0  0  0  0  0  0  0  0
    0.1062    4.1882   -0.8401 H   0  0  0  0  0  0  0  0  0  0  0  0
    0.8146    3.2918   -2.2214 H   0  0  0  0  0  0  0  0  0  0  0  0
    2.6164    4.2816   -0.8130 H   0  0  0  0  0  0  0  0  0  0  0  0
    1.9448    3.4904    0.6509 H   0  0  0  0  0  0  0  0  0  0  0  0
    3.1031    1.5544    0.0812 H   0  0  0  0  0  0  0  0  0  0  0  0
    5.1708    1.1745   -3.9760 H   0  0  0  0  0  0  0  0  0  0  0  0
    5.2301   -2.9872   -3.2714 H   0  0  0  0  0  0  0  0  0  0  0  0
    2.7195   -0.5108   -0.8439 H   0  0  0  0  0  0  0  0  0  0  0  0
  1  2  1  0
  2  3  1  0
  3  4  2  0
  4  5  1  0
  5  6  2  0
  6  7  1  0
  7  8  2  0
  6  9  1  0
  9 10  2  0
 10 11  1  0
 11 12  2  0
 12 13  1  0
 11 14  1  0
 14 15  1  0
 15 16  1  0
 16 17  1  0
 17 18  2  0
 17 19  1  0
 19 20  2  0
 20 21  1  0
 21 22  2  0
 22 23  1  0
 23 24  1  0
 23 25  2  0
  3  8  1  0
 13  9  1  0
 25 19  1  0
  1 26  1  0
  1 27  1  0
  1 28  1  0
  4 29  1  0
  5 30  1  0
  7 31  1  0
  8 32  1  0
 12 33  1  0
 14 34  1  0
 14 35  1  0
 15 36  1  0
 15 37  1  0
 16 38  1  0
 20 39  1  0
 22 40  1  0
 25 41  1  0
M  END
$$$$
