
     RDKit          3D

 43 45  0  0  0  0  0  0  0  0999 V2000
   -3.8289    2.1208   -1.3695 C   0  0  0  0  0  0  0  0  0  0  0  0
   -2.8613    2.2968   -2.9005 S   0  0  0  0  0  0  0  0  0  0  0  0
   -2.3236    0.5773   -2.9012 C   0  0  0  0  0  0  0  0  0  0  0  0
   -3.1146   -0.3611   -3.5775 C   0  0  0  0  0  0  0  0  0  0  0  0
   -2.7640   -1.7178   -3.5864 C   0  0  0  0  0  0  0  0  0  0  0  0
   -3.6408   -2.7203   -4.2768 C   0  0  0  0  0  0  0  0  0  0  0  0
   -1.6272   -2.1391   -2.8857 C   0  0  0  0  0  0  0  0  0  0  0  0
   -0.8301   -1.2114   -2.2118 C   0  0  0  0  0  0  0  0  0  0  0  0
   -1.1617    0.1543   -2.2143 C   0  0  0  0  0  0  0  0  0  0  0  0
   -0.2872    1.1125   -1.5014 C   0  0  0  0  0  0  0  0  0  0  0  0
    0.0318    2.1953   -2.0626 O   0  0  0  0  0  0  0  0  0  0  0  0
    0.2284    0.7947   -0.1984 N   0  0  0  0  0  0  0  0  0  0  0  0
    0.9608    1.7278    0.6100 C   0  0  0  0  0  0  0  0  0  0  0  0
    0.8007    3.0616    0.5914 N   0  0  0  0  0  0  0  0  0  0  0  0
    1.5601    3.5653    1.5509 N   0  0  0  0  0  0  0  0  0  0  0  0
    2.2044    2.6012    2.1957 N   0  0  0  0  0  0  0  0  0  0  0  0
    1.8370    1.4302    1.6362 C   0  0  0  0  0  0  0  0  0  0  0  0
    2.3558    0.1018    2.0317 C   0  0  0  0  0  0  0  0  0  0  0  0
    2.2352   -0.8623    1.2285 O   0  0  0  0  0  0  0  0  0  0  0  0
    3.0094   -0.1189    3.2970 N   0  0  0  0  0  0  0  0  0  0  0  0
    3.6250   -1.3892    3.6430 C   0  0  0  0  0  0  0  0  0  0  0  0
    4.2332   -1.1905    5.0243 C   0  0  0  0  0  0  0  0  0  0  0  0
    3.5543    0.0479    5.6003 C   0  0  0  0  0  0  0  0  0  0  0  0
    3.0283    0.8263    4.4019 C   0  0  0  0  0  0  0  0  0  0  0  0
   -4.6235    1.3578   -1.5061 H   0  0  0  0  0  0  0  0  0  0  0  0
   -3.1646    1.8243   -0.5309 H   0  0  0  0  0  0  0  0  0  0  0  0
   -4.3021    3.0940   -1.1261 H   0  0  0  0  0  0  0  0  0  0  0  0
   -4.0105   -0.0325   -4.0907 H   0  0  0  0  0  0  0  0  0  0  0  0
   -4.1399   -2.2632   -5.1578 H   0  0  0  0  0  0  0  0  0  0  0  0
   -3.0422   -3.5858   -4.6329 H   0  0  0  0  0  0  0  0  0  0  0  0
   -4.4154   -3.0823   -3.5691 H   0  0  0  0  0  0  0  0  0  0  0  0
   -1.3529   -3.1867   -2.8656 H   0  0  0  0  0  0  0  0  0  0  0  0
    0.0590   -1.5622   -1.7029 H   0  0  0  0  0  0  0  0  0  0  0  0
    0.0403   -0.1521    0.1981 H   0  0  0  0  0  0  0  0  0  0  0  0
    0.1667    3.6255   -0.0155 H   0  0  0  0  0  0  0  0  0  0  0  0
    2.8490   -2.1849    3.6719 H   0  0  0  0  0  0  0  0  0  0  0  0
    4.4113   -1.6535    2.9029 H   0  0  0  0  0  0  0  0  0  0  0  0
    5.3253   -1.0026    4.9275 H   0  0  0  0  0  0  0  0  0  0  0  0
    4.0710   -2.0797    5.6715 H   0  0  0  0  0  0  0  0  0  0  0  0
    2.7034   -0.2635    6.2456 H   0  0  0  0  0  0  0  0  0  0  0  0
    4.2644    0.6569    6.2008 H   0  0  0  0  0  0  0  0  0  0  0  0
    3.7147    1.6670    4.1632 H   0  0  0  0  0  0  0  0  0  0  0  0
    2.0048    1.2083    4.6081 H   0  0  0  0  0  0  0  0  0  0  0  0
  1  2  1  0
  2  3  1  0
  3  4  2  0
  4  5  1  0
  5  6  1  0
  5  7  2  0
  7  8  1  0
  8  9  2  0
  9 10  1  0
 10 11  2  0
 10 12  1  0
 12 13  1  0
 13 14  1  0
 14 15  1  0
 15 16  2  0
 16 17  1  0
 17 18  1  0
 18 19  2  0
 18 20  1  0
 20 21  1  0
 21 22  1  0
 22 23  1  0
 23 24  1  0
  3  9  1  0
 13 17  2  0
 24 20  1  0
  1 25  1  0
  1 26  1  0
  1 27  1  0
  4 28  1  0
  6 29  1  0
  6 30  1  0
  6 31  1  0
  7 32  1  0
  8 33  1  0
 12 34  1  0
 14 35  1  0
 21 36  1  0
 21 37  1  0
 22 38  1  0
 22 39  1  0
 23 40  1  0
 23 41  1  0
 24 42  1  0
 24 43  1  0
M  END
$$$$
