
     RDKit          3D

 49 52  0  0  0  0  0  0  0  0999 V2000
   -3.0581   -1.7516   -1.2863 C   0  0  0  0  0  0  0  0  0  0  0  0
   -2.2341   -0.5083   -1.2795 C   0  0  0  0  0  0  0  0  0  0  0  0
   -1.3721   -0.2755   -0.2615 N   0  0  0  0  0  0  0  0  0  0  0  0
   -0.5806    0.8264   -0.2374 C   0  0  0  0  0  0  0  0  0  0  0  0
   -0.6561    1.7669   -1.2884 C   0  0  0  0  0  0  0  0  0  0  0  0
    0.1358    3.0493   -1.2288 C   0  0  0  0  0  0  0  0  0  0  0  0
   -1.5136    1.4702   -2.3773 C   0  0  0  0  0  0  0  0  0  0  0  0
   -2.2809    0.3468   -2.3308 N   0  0  0  0  0  0  0  0  0  0  0  0
   -1.5956    2.3094   -3.5436 N   0  0  0  0  0  0  0  0  0  0  0  0
   -2.6608    2.4046   -4.3628 C   0  0  0  0  0  0  0  0  0  0  0  0
   -2.3356    3.2422   -5.4075 C   0  0  0  0  0  0  0  0  0  0  0  0
   -1.0285    3.6145   -5.1648 C   0  0  0  0  0  0  0  0  0  0  0  0
   -0.5960    3.0274   -4.0326 N   0  0  0  0  0  0  0  0  0  0  0  0
    0.3492    0.9880    0.8454 N   0  0  0  0  0  0  0  0  0  0  0  0
   -0.1489    1.2710    2.1971 C   0  0  0  0  0  0  0  0  0  0  0  0
   -0.5201   -0.0263    2.9312 C   0  0  0  0  0  0  0  0  0  0  0  0
    0.6844   -0.9340    3.2528 C   0  0  0  0  0  0  0  0  0  0  0  0
    1.5603   -1.1478    2.0886 N   0  0  0  0  0  0  0  0  0  0  0  0
    2.4465   -0.0466    1.6783 C   0  0  0  0  0  0  0  0  0  0  0  0
    1.7842    0.8018    0.5892 C   0  0  0  0  0  0  0  0  0  0  0  0
    1.4737   -2.3589    1.3007 C   0  0  0  0  0  0  0  0  0  0  0  0
    0.2277   -2.9368    0.9972 C   0  0  0  0  0  0  0  0  0  0  0  0
    0.1684   -4.0962    0.2211 C   0  0  0  0  0  0  0  0  0  0  0  0
    1.3117   -4.6766   -0.2273 N   0  0  0  0  0  0  0  0  0  0  0  0
    2.5325   -4.1575    0.0638 C   0  0  0  0  0  0  0  0  0  0  0  0
    2.6371   -2.9949    0.8318 C   0  0  0  0  0  0  0  0  0  0  0  0
   -3.9860   -1.5939   -1.8752 H   0  0  0  0  0  0  0  0  0  0  0  0
   -2.4733   -2.5796   -1.7390 H   0  0  0  0  0  0  0  0  0  0  0  0
   -3.3371   -2.0290   -0.2474 H   0  0  0  0  0  0  0  0  0  0  0  0
    1.0608    2.9485   -1.8347 H   0  0  0  0  0  0  0  0  0  0  0  0
    0.4152    3.3106   -0.1871 H   0  0  0  0  0  0  0  0  0  0  0  0
   -0.4727    3.8985   -1.6054 H   0  0  0  0  0  0  0  0  0  0  0  0
   -3.6081    1.9014   -4.2161 H   0  0  0  0  0  0  0  0  0  0  0  0
   -2.9617    3.5340   -6.2395 H   0  0  0  0  0  0  0  0  0  0  0  0
   -0.4250    4.2661   -5.7827 H   0  0  0  0  0  0  0  0  0  0  0  0
    0.6119    1.8330    2.7808 H   0  0  0  0  0  0  0  0  0  0  0  0
   -1.0476    1.9227    2.1314 H   0  0  0  0  0  0  0  0  0  0  0  0
   -1.0092    0.2453    3.8912 H   0  0  0  0  0  0  0  0  0  0  0  0
   -1.2781   -0.5811    2.3454 H   0  0  0  0  0  0  0  0  0  0  0  0
    1.2723   -0.4786    4.0791 H   0  0  0  0  0  0  0  0  0  0  0  0
    0.3125   -1.9086    3.6376 H   0  0  0  0  0  0  0  0  0  0  0  0
    2.6784    0.6028    2.5502 H   0  0  0  0  0  0  0  0  0  0  0  0
    3.4243   -0.4217    1.3164 H   0  0  0  0  0  0  0  0  0  0  0  0
    2.2840    1.7923    0.5385 H   0  0  0  0  0  0  0  0  0  0  0  0
    1.9331    0.2955   -0.3902 H   0  0  0  0  0  0  0  0  0  0  0  0
   -0.6944   -2.4973    1.3417 H   0  0  0  0  0  0  0  0  0  0  0  0
   -0.7895   -4.5348   -0.0251 H   0  0  0  0  0  0  0  0  0  0  0  0
    3.4254   -4.6492   -0.2990 H   0  0  0  0  0  0  0  0  0  0  0  0
    3.6210   -2.6182    1.0746 H   0  0  0  0  0  0  0  0  0  0  0  0
  1  2  1  0
  2  3  2  0
  3  4  1  0
  4  5  2  0
  5  6  1  0
  5  7  1  0
  7  8  2  0
  7  9  1  0
  9 10  1  0
 10 11  2  0
 11 12  1  0
 12 13  2  0
  4 14  1  0
 14 15  1  0
 15 16  1  0
 16 17  1  0
 17 18  1  0
 18 19  1  0
 19 20  1  0
 18 21  1  0
 21 22  2  0
 22 23  1  0
 23 24  2  0
 24 25  1  0
 25 26  2  0
  8  2  1  0
 13  9  1  0
 20 14  1  0
 21 26  1  0
  1 27  1  0
  1 28  1  0
  1 29  1  0
  6 30  1  0
  6 31  1  0
  6 32  1  0
 10 33  1  0
 11 34  1  0
 12 35  1  0
 15 36  1  0
 15 37  1  0
 16 38  1  0
 16 39  1  0
 17 40  1  0
 17 41  1  0
 19 42  1  0
 19 43  1  0
 20 44  1  0
 20 45  1  0
 22 46  1  0
 23 47  1  0
 25 48  1  0
 26 49  1  0
M  END
$$$$
