
     RDKit          3D

 45 48  0  0  0  0  0  0  0  0999 V2000
   -1.3749   -5.9876    2.6734 C   0  0  0  0  0  0  0  0  0  0  0  0
   -0.0871   -5.6320    2.2645 C   0  0  0  0  0  0  0  0  0  0  0  0
    0.2378   -4.2872    2.0601 C   0  0  0  0  0  0  0  0  0  0  0  0
   -0.7329   -3.2860    2.2506 C   0  0  0  0  0  0  0  0  0  0  0  0
   -0.4191   -1.8946    2.0725 N   0  0  0  0  0  0  0  0  0  0  0  0
    0.4604   -1.3894    1.0581 C   0  0  0  0  0  0  0  0  0  0  0  0
    0.8666   -0.0787    1.1129 N   0  0  0  0  0  0  0  0  0  0  0  0
    1.6762    0.4626    0.1525 C   0  0  0  0  0  0  0  0  0  0  0  0
    2.0915    1.7978    0.1983 O   0  0  0  0  0  0  0  0  0  0  0  0
    1.5986    2.7598    1.1320 C   0  0  0  0  0  0  0  0  0  0  0  0
    0.4908    3.6353    0.5115 C   0  0  0  0  0  0  0  0  0  0  0  0
   -0.7968    2.8300    0.1830 C   0  0  0  0  0  0  0  0  0  0  0  0
   -0.9073    2.4905   -1.3087 C   0  0  0  0  0  0  0  0  0  0  0  0
   -0.9313    3.7608   -2.1820 C   0  0  0  0  0  0  0  0  0  0  0  0
   -0.1171    4.9303   -1.5910 C   0  0  0  0  0  0  0  0  0  0  0  0
    1.0286    4.4325   -0.7045 C   0  0  0  0  0  0  0  0  0  0  0  0
    2.0740   -0.3657   -0.8847 C   0  0  0  0  0  0  0  0  0  0  0  0
    2.8376   -0.1044   -1.9507 N   0  0  0  0  0  0  0  0  0  0  0  0
    2.8572   -1.2814   -2.6263 C   0  0  0  0  0  0  0  0  0  0  0  0
    2.1340   -2.2683   -2.0283 N   0  0  0  0  0  0  0  0  0  0  0  0
    1.6582   -1.6494   -0.9350 C   0  0  0  0  0  0  0  0  0  0  0  0
    0.8514   -2.1839    0.0118 N   0  0  0  0  0  0  0  0  0  0  0  0
   -2.0164   -3.6523    2.6853 C   0  0  0  0  0  0  0  0  0  0  0  0
   -2.3377   -4.9981    2.8879 C   0  0  0  0  0  0  0  0  0  0  0  0
   -1.6240   -7.0288    2.8327 H   0  0  0  0  0  0  0  0  0  0  0  0
    0.6628   -6.3980    2.1148 H   0  0  0  0  0  0  0  0  0  0  0  0
    1.2507   -4.0308    1.7795 H   0  0  0  0  0  0  0  0  0  0  0  0
   -0.9241   -1.1959    2.6637 H   0  0  0  0  0  0  0  0  0  0  0  0
    2.4439    3.4177    1.4268 H   0  0  0  0  0  0  0  0  0  0  0  0
    1.2367    2.2725    2.0635 H   0  0  0  0  0  0  0  0  0  0  0  0
    0.2097    4.3792    1.2910 H   0  0  0  0  0  0  0  0  0  0  0  0
   -0.8579    1.9002    0.7856 H   0  0  0  0  0  0  0  0  0  0  0  0
   -1.6853    3.4387    0.4629 H   0  0  0  0  0  0  0  0  0  0  0  0
   -0.0456    1.8558   -1.6063 H   0  0  0  0  0  0  0  0  0  0  0  0
   -1.8318    1.9002   -1.4881 H   0  0  0  0  0  0  0  0  0  0  0  0
   -1.9833    4.0935   -2.3189 H   0  0  0  0  0  0  0  0  0  0  0  0
   -0.5328    3.5057   -3.1882 H   0  0  0  0  0  0  0  0  0  0  0  0
   -0.7863    5.5794   -0.9840 H   0  0  0  0  0  0  0  0  0  0  0  0
    0.2933    5.5514   -2.4164 H   0  0  0  0  0  0  0  0  0  0  0  0
    1.6210    5.3020   -0.3450 H   0  0  0  0  0  0  0  0  0  0  0  0
    1.7031    3.8033   -1.3261 H   0  0  0  0  0  0  0  0  0  0  0  0
    3.3034    0.7936   -2.2094 H   0  0  0  0  0  0  0  0  0  0  0  0
    3.3931   -1.4221   -3.5556 H   0  0  0  0  0  0  0  0  0  0  0  0
   -2.7701   -2.8941    2.8568 H   0  0  0  0  0  0  0  0  0  0  0  0
   -3.3325   -5.2735    3.2133 H   0  0  0  0  0  0  0  0  0  0  0  0
  1  2  2  0
  2  3  1  0
  3  4  2  0
  4  5  1  0
  5  6  1  0
  6  7  2  0
  7  8  1  0
  8  9  1  0
  9 10  1  0
 10 11  1  0
 11 12  1  0
 12 13  1  0
 13 14  1  0
 14 15  1  0
 15 16  1  0
  8 17  2  0
 17 18  1  0
 18 19  1  0
 19 20  2  0
 20 21  1  0
 21 22  2  0
  4 23  1  0
 23 24  2  0
 24  1  1  0
 22  6  1  0
 16 11  1  0
 21 17  1  0
  1 25  1  0
  2 26  1  0
  3 27  1  0
  5 28  1  0
 10 29  1  0
 10 30  1  0
 11 31  1  0
 12 32  1  0
 12 33  1  0
 13 34  1  0
 13 35  1  0
 14 36  1  0
 14 37  1  0
 15 38  1  0
 15 39  1  0
 16 40  1  0
 16 41  1  0
 18 42  1  0
 19 43  1  0
 23 44  1  0
 24 45  1  0
M  END
$$$$
