
     RDKit          3D

 36 38  0  0  0  0  0  0  0  0999 V2000
   -0.1163    1.5515   -2.6407 O   0  0  0  0  0  0  0  0  0  0  0  0
   -0.1098    1.8001   -1.4053 C   0  0  0  0  0  0  0  0  0  0  0  0
    0.2997    0.8012   -0.4561 N   0  0  0  0  0  0  0  0  0  0  0  0
    0.6948   -0.5339   -0.8113 C   0  0  0  0  0  0  0  0  0  0  0  0
    1.5047   -0.7856   -1.9323 C   0  0  0  0  0  0  0  0  0  0  0  0
    1.8870   -2.0925   -2.2455 C   0  0  0  0  0  0  0  0  0  0  0  0
    1.4809   -3.1564   -1.4368 C   0  0  0  0  0  0  0  0  0  0  0  0
    0.7017   -2.9178   -0.2943 C   0  0  0  0  0  0  0  0  0  0  0  0
    0.3117   -1.6037    0.0116 C   0  0  0  0  0  0  0  0  0  0  0  0
    0.2451   -4.0645    0.5699 C   0  0  0  0  0  0  0  0  0  0  0  0
   -1.1522   -4.5385    0.1702 C   0  0  0  0  0  0  0  0  0  0  0  0
   -1.1305   -5.0592   -1.1303 O   0  0  0  0  0  0  0  0  0  0  0  0
   -0.4892    3.1441   -0.9482 C   0  0  0  0  0  0  0  0  0  0  0  0
    0.0571    4.3295   -1.4345 C   0  0  0  0  0  0  0  0  0  0  0  0
   -0.3657    5.3830   -0.7014 N   0  0  0  0  0  0  0  0  0  0  0  0
   -1.1787    4.8695    0.2344 C   0  0  0  0  0  0  0  0  0  0  0  0
   -1.8063    5.5720    1.2076 N   0  0  0  0  0  0  0  0  0  0  0  0
   -2.6004    4.8974    2.0883 C   0  0  0  0  0  0  0  0  0  0  0  0
   -2.7798    3.5461    1.9656 N   0  0  0  0  0  0  0  0  0  0  0  0
   -2.1653    2.8269    0.9818 C   0  0  0  0  0  0  0  0  0  0  0  0
   -2.4586    1.4716    0.8478 O   0  0  0  0  0  0  0  0  0  0  0  0
   -1.3027    3.5123    0.1161 C   0  0  0  0  0  0  0  0  0  0  0  0
    0.2166    1.0271    0.5611 H   0  0  0  0  0  0  0  0  0  0  0  0
    1.8625    0.0256   -2.5518 H   0  0  0  0  0  0  0  0  0  0  0  0
    2.5051   -2.2805   -3.1139 H   0  0  0  0  0  0  0  0  0  0  0  0
    1.7795   -4.1644   -1.6969 H   0  0  0  0  0  0  0  0  0  0  0  0
   -0.3027   -1.4131    0.8836 H   0  0  0  0  0  0  0  0  0  0  0  0
    0.9593   -4.9138    0.4968 H   0  0  0  0  0  0  0  0  0  0  0  0
    0.2286   -3.7447    1.6347 H   0  0  0  0  0  0  0  0  0  0  0  0
   -1.8701   -3.6895    0.2300 H   0  0  0  0  0  0  0  0  0  0  0  0
   -1.4797   -5.3291    0.8814 H   0  0  0  0  0  0  0  0  0  0  0  0
   -2.0617   -5.3379   -1.3302 H   0  0  0  0  0  0  0  0  0  0  0  0
    0.7649    4.4094   -2.2496 H   0  0  0  0  0  0  0  0  0  0  0  0
   -0.0965    6.3841   -0.8252 H   0  0  0  0  0  0  0  0  0  0  0  0
   -3.1057    5.4366    2.8775 H   0  0  0  0  0  0  0  0  0  0  0  0
   -2.2010    0.9366    0.0305 H   0  0  0  0  0  0  0  0  0  0  0  0
  1  2  2  0
  2  3  1  0
  3  4  1  0
  4  5  2  0
  5  6  1  0
  6  7  2  0
  7  8  1  0
  8  9  2  0
  8 10  1  0
 10 11  1  0
 11 12  1  0
  2 13  1  0
 13 14  2  0
 14 15  1  0
 15 16  1  0
 16 17  2  0
 17 18  1  0
 18 19  2  0
 19 20  1  0
 20 21  1  0
 20 22  2  0
  4  9  1  0
 22 13  1  0
 16 22  1  0
  3 23  1  0
  5 24  1  0
  6 25  1  0
  7 26  1  0
  9 27  1  0
 10 28  1  0
 10 29  1  0
 11 30  1  0
 11 31  1  0
 12 32  1  0
 14 33  1  0
 15 34  1  0
 18 35  1  0
 21 36  1  0
M  END
$$$$
