
     RDKit          3D

 47 49  0  0  0  0  0  0  0  0999 V2000
   -2.2719    1.4838   -3.4624 C   0  0  0  0  0  0  0  0  0  0  0  0
   -2.7650    2.2104   -2.3512 O   0  0  0  0  0  0  0  0  0  0  0  0
   -3.3379    1.3792   -1.3425 C   0  0  0  0  0  0  0  0  0  0  0  0
   -3.5684    2.2282   -0.1133 C   0  0  0  0  0  0  0  0  0  0  0  0
   -4.9324    2.8474   -0.3587 C   0  0  0  0  0  0  0  0  0  0  0  0
   -5.6201    2.0963   -1.3321 O   0  0  0  0  0  0  0  0  0  0  0  0
   -4.7877    1.0211   -1.6949 C   0  0  0  0  0  0  0  0  0  0  0  0
   -2.4703    0.1716   -0.9928 C   0  0  0  0  0  0  0  0  0  0  0  0
   -2.8581   -1.1131   -1.1500 N   0  0  0  0  0  0  0  0  0  0  0  0
   -1.8487   -1.8818   -0.7612 N   0  0  0  0  0  0  0  0  0  0  0  0
   -0.8603   -1.0528   -0.3792 C   0  0  0  0  0  0  0  0  0  0  0  0
    0.4724   -1.4850    0.1453 C   0  0  0  0  0  0  0  0  0  0  0  0
    1.3014   -0.3219    0.5130 N   0  0  0  0  0  0  0  0  0  0  0  0
    1.0963    0.9747   -0.1634 C   0  0  0  0  0  0  0  0  0  0  0  0
   -0.3839    1.3733   -0.1414 C   0  0  0  0  0  0  0  0  0  0  0  0
   -1.2052    0.2320   -0.5295 N   0  0  0  0  0  0  0  0  0  0  0  0
    2.4797   -0.5463    1.3115 C   0  0  0  0  0  0  0  0  0  0  0  0
    3.2607    0.4099    1.5688 O   0  0  0  0  0  0  0  0  0  0  0  0
    2.7477   -1.8362    1.7995 O   0  0  0  0  0  0  0  0  0  0  0  0
    3.8678   -2.2272    2.6075 C   0  0  0  0  0  0  0  0  0  0  0  0
    5.1904   -1.9875    1.8544 C   0  0  0  0  0  0  0  0  0  0  0  0
    3.8602   -1.4697    3.9490 C   0  0  0  0  0  0  0  0  0  0  0  0
    3.7216   -3.7309    2.8864 C   0  0  0  0  0  0  0  0  0  0  0  0
   -2.9050    0.6133   -3.7381 H   0  0  0  0  0  0  0  0  0  0  0  0
   -2.2350    2.1620   -4.3392 H   0  0  0  0  0  0  0  0  0  0  0  0
   -1.2354    1.1398   -3.2602 H   0  0  0  0  0  0  0  0  0  0  0  0
   -2.7892    3.0107    0.0165 H   0  0  0  0  0  0  0  0  0  0  0  0
   -3.6134    1.6023    0.8076 H   0  0  0  0  0  0  0  0  0  0  0  0
   -4.8129    3.8879   -0.7309 H   0  0  0  0  0  0  0  0  0  0  0  0
   -5.5243    2.8742    0.5815 H   0  0  0  0  0  0  0  0  0  0  0  0
   -5.1272    0.1227   -1.1331 H   0  0  0  0  0  0  0  0  0  0  0  0
   -4.9174    0.8109   -2.7757 H   0  0  0  0  0  0  0  0  0  0  0  0
    0.2960   -2.1218    1.0388 H   0  0  0  0  0  0  0  0  0  0  0  0
    0.9971   -2.0844   -0.6285 H   0  0  0  0  0  0  0  0  0  0  0  0
    1.6800    1.7854    0.3224 H   0  0  0  0  0  0  0  0  0  0  0  0
    1.4386    0.8888   -1.2173 H   0  0  0  0  0  0  0  0  0  0  0  0
   -0.6665    1.6919    0.8849 H   0  0  0  0  0  0  0  0  0  0  0  0
   -0.5446    2.2206   -0.8407 H   0  0  0  0  0  0  0  0  0  0  0  0
    5.3837   -0.9055    1.7088 H   0  0  0  0  0  0  0  0  0  0  0  0
    6.0465   -2.4089    2.4244 H   0  0  0  0  0  0  0  0  0  0  0  0
    5.1557   -2.4737    0.8561 H   0  0  0  0  0  0  0  0  0  0  0  0
    4.0553   -0.3875    3.8045 H   0  0  0  0  0  0  0  0  0  0  0  0
    4.6474   -1.8663    4.6263 H   0  0  0  0  0  0  0  0  0  0  0  0
    2.8736   -1.5836    4.4474 H   0  0  0  0  0  0  0  0  0  0  0  0
    4.5620   -4.1053    3.5102 H   0  0  0  0  0  0  0  0  0  0  0  0
    2.7673   -3.9329    3.4195 H   0  0  0  0  0  0  0  0  0  0  0  0
    3.7086   -4.3000    1.9319 H   0  0  0  0  0  0  0  0  0  0  0  0
  1  2  1  0
  2  3  1  0
  3  4  1  0
  4  5  1  0
  5  6  1  0
  6  7  1  0
  3  8  1  0
  8  9  2  0
  9 10  1  0
 10 11  2  0
 11 12  1  0
 12 13  1  0
 13 14  1  0
 14 15  1  0
 15 16  1  0
 13 17  1  0
 17 18  2  0
 17 19  1  0
 19 20  1  0
 20 21  1  0
 20 22  1  0
 20 23  1  0
  7  3  1  0
 16  8  1  0
 16 11  1  0
  1 24  1  0
  1 25  1  0
  1 26  1  0
  4 27  1  0
  4 28  1  0
  5 29  1  0
  5 30  1  0
  7 31  1  0
  7 32  1  0
 12 33  1  0
 12 34  1  0
 14 35  1  0
 14 36  1  0
 15 37  1  0
 15 38  1  0
 21 39  1  0
 21 40  1  0
 21 41  1  0
 22 42  1  0
 22 43  1  0
 22 44  1  0
 23 45  1  0
 23 46  1  0
 23 47  1  0
M  END
$$$$
