
     RDKit          3D

 49 52  0  0  0  0  0  0  0  0999 V2000
   -2.0002    2.5332   -1.3539 C   0  0  0  0  0  0  0  0  0  0  0  0
   -2.1980    2.7842    0.0739 N   0  0  0  0  0  0  0  0  0  0  0  0
   -3.5413    2.7113    0.6466 C   0  0  0  0  0  0  0  0  0  0  0  0
   -1.0866    3.1366    0.9141 C   0  0  0  0  0  0  0  0  0  0  0  0
   -1.0436    4.3985    1.5419 C   0  0  0  0  0  0  0  0  0  0  0  0
    0.0471    4.7596    2.3545 C   0  0  0  0  0  0  0  0  0  0  0  0
    1.1077    3.8659    2.5563 C   0  0  0  0  0  0  0  0  0  0  0  0
    1.0475    2.6217    1.9357 C   0  0  0  0  0  0  0  0  0  0  0  0
    2.1550    1.3654    2.0352 S   0  0  0  0  0  0  0  0  0  0  0  0
    1.2795    0.3132    1.0404 C   0  0  0  0  0  0  0  0  0  0  0  0
    0.1003    0.9409    0.6308 C   0  0  0  0  0  0  0  0  0  0  0  0
   -0.0193    2.2463    1.1300 C   0  0  0  0  0  0  0  0  0  0  0  0
    1.6940   -1.0602    0.7066 C   0  0  0  0  0  0  0  0  0  0  0  0
    2.6866   -1.5591    1.3010 O   0  0  0  0  0  0  0  0  0  0  0  0
    0.9893   -1.8147   -0.2982 N   0  0  0  0  0  0  0  0  0  0  0  0
    1.1244   -3.2712   -0.5308 C   0  0  0  0  0  0  0  0  0  0  0  0
    1.1290   -4.0700    0.7856 C   0  0  0  0  0  0  0  0  0  0  0  0
    2.5061   -4.7133    0.8716 C   0  0  0  0  0  0  0  0  0  0  0  0
    3.0993   -4.6963   -0.4626 N   0  0  0  0  0  0  0  0  0  0  0  0
    2.5126   -3.5481   -1.1499 C   0  0  0  0  0  0  0  0  0  0  0  0
   -0.0519   -3.7684   -1.3963 C   0  0  0  0  0  0  0  0  0  0  0  0
   -1.3419   -3.2264   -1.1945 C   0  0  0  0  0  0  0  0  0  0  0  0
   -2.4418   -3.6993   -1.9150 C   0  0  0  0  0  0  0  0  0  0  0  0
   -2.2866   -4.7458   -2.8229 C   0  0  0  0  0  0  0  0  0  0  0  0
   -1.0349   -5.3350   -2.9968 C   0  0  0  0  0  0  0  0  0  0  0  0
    0.0699   -4.8670   -2.2791 C   0  0  0  0  0  0  0  0  0  0  0  0
   -2.3270    1.5016   -1.6026 H   0  0  0  0  0  0  0  0  0  0  0  0
   -2.5979    3.2577   -1.9459 H   0  0  0  0  0  0  0  0  0  0  0  0
   -0.9313    2.6480   -1.6355 H   0  0  0  0  0  0  0  0  0  0  0  0
   -3.5530    1.9741    1.4770 H   0  0  0  0  0  0  0  0  0  0  0  0
   -4.2819    2.3923   -0.1180 H   0  0  0  0  0  0  0  0  0  0  0  0
   -3.8444    3.7057    1.0352 H   0  0  0  0  0  0  0  0  0  0  0  0
   -1.8469    5.1079    1.3904 H   0  0  0  0  0  0  0  0  0  0  0  0
    0.0679    5.7336    2.8259 H   0  0  0  0  0  0  0  0  0  0  0  0
    1.9475    4.1352    3.1836 H   0  0  0  0  0  0  0  0  0  0  0  0
   -0.6528    0.4637    0.0195 H   0  0  0  0  0  0  0  0  0  0  0  0
    0.4829   -1.2572   -1.0226 H   0  0  0  0  0  0  0  0  0  0  0  0
    0.9268   -3.4414    1.6788 H   0  0  0  0  0  0  0  0  0  0  0  0
    0.3632   -4.8788    0.7849 H   0  0  0  0  0  0  0  0  0  0  0  0
    3.1557   -4.1348    1.5628 H   0  0  0  0  0  0  0  0  0  0  0  0
    2.4358   -5.7545    1.2586 H   0  0  0  0  0  0  0  0  0  0  0  0
    2.7992   -5.5669   -0.9600 H   0  0  0  0  0  0  0  0  0  0  0  0
    3.1943   -2.6830   -1.0017 H   0  0  0  0  0  0  0  0  0  0  0  0
    2.4829   -3.7056   -2.2493 H   0  0  0  0  0  0  0  0  0  0  0  0
   -1.5058   -2.4407   -0.4680 H   0  0  0  0  0  0  0  0  0  0  0  0
   -3.4191   -3.2610   -1.7587 H   0  0  0  0  0  0  0  0  0  0  0  0
   -3.1406   -5.1139   -3.3767 H   0  0  0  0  0  0  0  0  0  0  0  0
   -0.9219   -6.1671   -3.6799 H   0  0  0  0  0  0  0  0  0  0  0  0
    1.0071   -5.3837   -2.4153 H   0  0  0  0  0  0  0  0  0  0  0  0
  1  2  1  0
  2  3  1  0
  2  4  1  0
  4  5  2  0
  5  6  1  0
  6  7  2  0
  7  8  1  0
  8  9  1  0
  9 10  1  0
 10 11  2  0
 11 12  1  0
 10 13  1  0
 13 14  2  0
 13 15  1  0
 15 16  1  0
 16 17  1  0
 17 18  1  0
 18 19  1  0
 19 20  1  0
 16 21  1  0
 21 22  2  0
 22 23  1  0
 23 24  2  0
 24 25  1  0
 25 26  2  0
  4 12  1  0
 12  8  2  0
 20 16  1  0
 21 26  1  0
  1 27  1  0
  1 28  1  0
  1 29  1  0
  3 30  1  0
  3 31  1  0
  3 32  1  0
  5 33  1  0
  6 34  1  0
  7 35  1  0
 11 36  1  0
 15 37  1  0
 17 38  1  0
 17 39  1  0
 18 40  1  0
 18 41  1  0
 19 42  1  0
 20 43  1  0
 20 44  1  0
 22 45  1  0
 23 46  1  0
 24 47  1  0
 25 48  1  0
 26 49  1  0
M  END
$$$$
