
     RDKit          3D

 42 44  0  0  0  0  0  0  0  0999 V2000
   -1.4798   -2.5326   -1.0007 C   0  0  0  0  0  0  0  0  0  0  0  0
   -0.5371   -2.9909    0.1087 C   0  0  0  0  0  0  0  0  0  0  0  0
    0.0200   -1.8373    0.8285 N   0  0  0  0  0  0  0  0  0  0  0  0
    1.4669   -1.5902    0.8181 C   0  0  0  0  0  0  0  0  0  0  0  0
    1.8708   -0.8874   -0.4392 C   0  0  0  0  0  0  0  0  0  0  0  0
    2.1913    0.4448   -0.5693 C   0  0  0  0  0  0  0  0  0  0  0  0
    2.4034    0.6470   -1.8802 N   0  0  0  0  0  0  0  0  0  0  0  0
    2.6365    1.9290   -2.5319 C   0  0  0  0  0  0  0  0  0  0  0  0
    1.3284    2.5861   -2.8295 C   0  0  0  0  0  0  0  0  0  0  0  0
    0.7086    2.5063   -4.0270 N   0  0  0  0  0  0  0  0  0  0  0  0
   -0.5066    3.1163   -4.0081 C   0  0  0  0  0  0  0  0  0  0  0  0
   -0.8711    3.6712   -2.7862 C   0  0  0  0  0  0  0  0  0  0  0  0
    0.3767    3.3854   -1.6963 S   0  0  0  0  0  0  0  0  0  0  0  0
    2.2078   -0.4945   -2.5211 N   0  0  0  0  0  0  0  0  0  0  0  0
    1.8870   -1.4531   -1.6635 N   0  0  0  0  0  0  0  0  0  0  0  0
   -0.8517   -0.9586    1.5630 C   0  0  0  0  0  0  0  0  0  0  0  0
   -1.6355   -1.4565    2.6142 C   0  0  0  0  0  0  0  0  0  0  0  0
   -2.4955   -0.6070    3.3149 C   0  0  0  0  0  0  0  0  0  0  0  0
   -2.5803    0.7449    2.9721 C   0  0  0  0  0  0  0  0  0  0  0  0
   -1.7935    1.2595    1.9305 C   0  0  0  0  0  0  0  0  0  0  0  0
   -0.9411    0.3995    1.2208 C   0  0  0  0  0  0  0  0  0  0  0  0
   -1.9156    2.7034    1.5273 C   0  0  0  0  0  0  0  0  0  0  0  0
   -2.9128    2.8499    0.5539 O   0  0  0  0  0  0  0  0  0  0  0  0
   -2.3635   -2.0176   -0.5674 H   0  0  0  0  0  0  0  0  0  0  0  0
   -0.9541   -1.8367   -1.6888 H   0  0  0  0  0  0  0  0  0  0  0  0
   -1.8313   -3.4131   -1.5790 H   0  0  0  0  0  0  0  0  0  0  0  0
   -1.0858   -3.6497    0.8145 H   0  0  0  0  0  0  0  0  0  0  0  0
    0.2761   -3.5962   -0.3478 H   0  0  0  0  0  0  0  0  0  0  0  0
    2.0174   -2.5525    0.8923 H   0  0  0  0  0  0  0  0  0  0  0  0
    1.7598   -0.9810    1.7016 H   0  0  0  0  0  0  0  0  0  0  0  0
    2.2231    1.2023    0.2031 H   0  0  0  0  0  0  0  0  0  0  0  0
    3.2044    1.7733   -3.4747 H   0  0  0  0  0  0  0  0  0  0  0  0
    3.2410    2.5858   -1.8698 H   0  0  0  0  0  0  0  0  0  0  0  0
   -1.1416    3.1532   -4.8828 H   0  0  0  0  0  0  0  0  0  0  0  0
   -1.7983    4.1855   -2.5738 H   0  0  0  0  0  0  0  0  0  0  0  0
   -1.5744   -2.4994    2.8952 H   0  0  0  0  0  0  0  0  0  0  0  0
   -3.0996   -0.9975    4.1235 H   0  0  0  0  0  0  0  0  0  0  0  0
   -3.2598    1.3891    3.5167 H   0  0  0  0  0  0  0  0  0  0  0  0
   -0.3695    0.7825    0.3874 H   0  0  0  0  0  0  0  0  0  0  0  0
   -0.9421    3.0873    1.1469 H   0  0  0  0  0  0  0  0  0  0  0  0
   -2.1838    3.3233    2.4094 H   0  0  0  0  0  0  0  0  0  0  0  0
   -2.5318    2.5066   -0.2966 H   0  0  0  0  0  0  0  0  0  0  0  0
  1  2  1  0
  2  3  1  0
  3  4  1  0
  4  5  1  0
  5  6  2  0
  6  7  1  0
  7  8  1  0
  8  9  1  0
  9 10  2  0
 10 11  1  0
 11 12  2  0
 12 13  1  0
  7 14  1  0
 14 15  2  0
  3 16  1  0
 16 17  2  0
 17 18  1  0
 18 19  2  0
 19 20  1  0
 20 21  2  0
 20 22  1  0
 22 23  1  0
 15  5  1  0
 13  9  1  0
 16 21  1  0
  1 24  1  0
  1 25  1  0
  1 26  1  0
  2 27  1  0
  2 28  1  0
  4 29  1  0
  4 30  1  0
  6 31  1  0
  8 32  1  0
  8 33  1  0
 11 34  1  0
 12 35  1  0
 17 36  1  0
 18 37  1  0
 19 38  1  0
 21 39  1  0
 22 40  1  0
 22 41  1  0
 23 42  1  0
M  END
$$$$
