
     RDKit          3D

 47 50  0  0  0  0  0  0  0  0999 V2000
   -0.5466    0.3942   -1.6326 O   0  0  0  0  0  0  0  0  0  0  0  0
    0.0262   -0.7248   -1.7437 C   0  0  0  0  0  0  0  0  0  0  0  0
    1.1863   -0.8592   -2.5831 N   0  0  0  0  0  0  0  0  0  0  0  0
    1.9977    0.2435   -3.0260 C   0  0  0  0  0  0  0  0  0  0  0  0
    2.6979    0.1356   -4.2364 C   0  0  0  0  0  0  0  0  0  0  0  0
    3.5036    1.1844   -4.6849 C   0  0  0  0  0  0  0  0  0  0  0  0
    3.6338    2.3458   -3.9216 C   0  0  0  0  0  0  0  0  0  0  0  0
    2.9740    2.4635   -2.6886 C   0  0  0  0  0  0  0  0  0  0  0  0
    2.1491    1.4086   -2.2505 C   0  0  0  0  0  0  0  0  0  0  0  0
    3.0891    3.7564   -1.9048 C   0  0  0  0  0  0  0  0  0  0  0  0
    1.9256    4.7219   -2.2411 C   0  0  0  0  0  0  0  0  0  0  0  0
    1.0049    4.7621   -1.0109 C   0  0  0  0  0  0  0  0  0  0  0  0
    1.8056    4.0833    0.0273 C   0  0  0  0  0  0  0  0  0  0  0  0
    1.4485    3.9724    1.2312 O   0  0  0  0  0  0  0  0  0  0  0  0
    2.9979    3.5178   -0.4718 N   0  0  0  0  0  0  0  0  0  0  0  0
   -0.5285   -1.9045   -1.0447 C   0  0  0  0  0  0  0  0  0  0  0  0
   -1.7119   -1.8127   -0.2932 C   0  0  0  0  0  0  0  0  0  0  0  0
   -2.2085   -2.9474    0.3498 C   0  0  0  0  0  0  0  0  0  0  0  0
   -1.5293   -4.1716    0.2406 C   0  0  0  0  0  0  0  0  0  0  0  0
   -0.3455   -4.2173   -0.5013 C   0  0  0  0  0  0  0  0  0  0  0  0
    0.1174   -3.1008   -1.1233 N   0  0  0  0  0  0  0  0  0  0  0  0
   -1.9776   -5.3356    0.8838 O   0  0  0  0  0  0  0  0  0  0  0  0
   -3.3163   -5.6297    1.1756 C   0  0  0  0  0  0  0  0  0  0  0  0
   -4.3617   -5.2509    0.3149 C   0  0  0  0  0  0  0  0  0  0  0  0
   -5.6858   -5.5705    0.6336 C   0  0  0  0  0  0  0  0  0  0  0  0
   -5.9737   -6.2782    1.8035 C   0  0  0  0  0  0  0  0  0  0  0  0
   -4.9364   -6.6761    2.6503 C   0  0  0  0  0  0  0  0  0  0  0  0
   -3.6116   -6.3608    2.3328 C   0  0  0  0  0  0  0  0  0  0  0  0
    1.4145   -1.8082   -2.9553 H   0  0  0  0  0  0  0  0  0  0  0  0
    2.6070   -0.7586   -4.8399 H   0  0  0  0  0  0  0  0  0  0  0  0
    4.0265    1.0967   -5.6278 H   0  0  0  0  0  0  0  0  0  0  0  0
    4.2468    3.1583   -4.2950 H   0  0  0  0  0  0  0  0  0  0  0  0
    1.6469    1.4877   -1.2964 H   0  0  0  0  0  0  0  0  0  0  0  0
    4.0636    4.2482   -2.1227 H   0  0  0  0  0  0  0  0  0  0  0  0
    2.3389    5.7396   -2.4163 H   0  0  0  0  0  0  0  0  0  0  0  0
    1.3608    4.4157   -3.1493 H   0  0  0  0  0  0  0  0  0  0  0  0
    0.7679    5.8066   -0.7120 H   0  0  0  0  0  0  0  0  0  0  0  0
    0.0717    4.1859   -1.1971 H   0  0  0  0  0  0  0  0  0  0  0  0
    3.6620    2.9347    0.0880 H   0  0  0  0  0  0  0  0  0  0  0  0
   -2.2481   -0.8756   -0.2006 H   0  0  0  0  0  0  0  0  0  0  0  0
   -3.1108   -2.8643    0.9434 H   0  0  0  0  0  0  0  0  0  0  0  0
    0.2021   -5.1460   -0.5921 H   0  0  0  0  0  0  0  0  0  0  0  0
   -4.1502   -4.7243   -0.6074 H   0  0  0  0  0  0  0  0  0  0  0  0
   -6.4875   -5.2756   -0.0305 H   0  0  0  0  0  0  0  0  0  0  0  0
   -6.9990   -6.5295    2.0464 H   0  0  0  0  0  0  0  0  0  0  0  0
   -5.1604   -7.2335    3.5503 H   0  0  0  0  0  0  0  0  0  0  0  0
   -2.8134   -6.6743    2.9936 H   0  0  0  0  0  0  0  0  0  0  0  0
  1  2  2  0
  2  3  1  0
  3  4  1  0
  4  5  2  0
  5  6  1  0
  6  7  2  0
  7  8  1  0
  8  9  2  0
  8 10  1  0
 10 11  1  0
 11 12  1  0
 12 13  1  0
 13 14  2  0
 13 15  1  0
  2 16  1  0
 16 17  2  0
 17 18  1  0
 18 19  2  0
 19 20  1  0
 20 21  2  0
 19 22  1  0
 22 23  1  0
 23 24  2  0
 24 25  1  0
 25 26  2  0
 26 27  1  0
 27 28  2  0
  4  9  1  0
 15 10  1  0
 16 21  1  0
 23 28  1  0
  3 29  1  0
  5 30  1  0
  6 31  1  0
  7 32  1  0
  9 33  1  0
 10 34  1  0
 11 35  1  0
 11 36  1  0
 12 37  1  0
 12 38  1  0
 15 39  1  0
 17 40  1  0
 18 41  1  0
 20 42  1  0
 24 43  1  0
 25 44  1  0
 26 45  1  0
 27 46  1  0
 28 47  1  0
M  END
$$$$
