
     RDKit          3D

 41 44  0  0  0  0  0  0  0  0999 V2000
   -1.0215   -3.5610    2.1389 O   0  0  0  0  0  0  0  0  0  0  0  0
   -1.2010   -2.3965    2.5901 C   0  0  0  0  0  0  0  0  0  0  0  0
   -0.6613   -1.2677    1.8819 N   0  0  0  0  0  0  0  0  0  0  0  0
    0.4342   -1.3570    0.9541 C   0  0  0  0  0  0  0  0  0  0  0  0
    1.4668   -2.2950    1.1298 C   0  0  0  0  0  0  0  0  0  0  0  0
    2.5404   -2.3357    0.2376 C   0  0  0  0  0  0  0  0  0  0  0  0
    2.5983   -1.4417   -0.8335 C   0  0  0  0  0  0  0  0  0  0  0  0
    1.5780   -0.4973   -1.0237 C   0  0  0  0  0  0  0  0  0  0  0  0
    0.5098   -0.4479   -0.1129 C   0  0  0  0  0  0  0  0  0  0  0  0
    1.6548    0.4528   -2.1523 C   0  0  0  0  0  0  0  0  0  0  0  0
    2.7990    1.0268   -2.5864 N   0  0  0  0  0  0  0  0  0  0  0  0
    2.5594    1.7456   -3.6749 N   0  0  0  0  0  0  0  0  0  0  0  0
    1.2453    1.6280   -3.9379 C   0  0  0  0  0  0  0  0  0  0  0  0
    0.5145    2.1783   -5.1161 C   0  0  0  0  0  0  0  0  0  0  0  0
   -0.7893    1.3729   -5.3086 C   0  0  0  0  0  0  0  0  0  0  0  0
   -1.4830    1.2037   -4.0759 O   0  0  0  0  0  0  0  0  0  0  0  0
   -0.7644    0.3413   -3.2000 C   0  0  0  0  0  0  0  0  0  0  0  0
    0.6333    0.8496   -2.9968 C   0  0  0  0  0  0  0  0  0  0  0  0
   -2.0107   -2.2075    3.8181 C   0  0  0  0  0  0  0  0  0  0  0  0
   -2.8536   -3.2329    4.2814 C   0  0  0  0  0  0  0  0  0  0  0  0
   -3.5911   -3.0599    5.4103 N   0  0  0  0  0  0  0  0  0  0  0  0
   -3.5399   -1.9091    6.1303 C   0  0  0  0  0  0  0  0  0  0  0  0
   -2.7107   -0.8638    5.7207 C   0  0  0  0  0  0  0  0  0  0  0  0
   -2.6552    0.3106    6.4679 O   0  0  0  0  0  0  0  0  0  0  0  0
   -1.9421   -1.0160    4.5607 C   0  0  0  0  0  0  0  0  0  0  0  0
   -1.1653   -0.3553    1.9560 H   0  0  0  0  0  0  0  0  0  0  0  0
    1.4605   -2.9761    1.9703 H   0  0  0  0  0  0  0  0  0  0  0  0
    3.3337   -3.0581    0.3806 H   0  0  0  0  0  0  0  0  0  0  0  0
    3.4352   -1.4938   -1.5189 H   0  0  0  0  0  0  0  0  0  0  0  0
   -0.2539    0.3115   -0.2135 H   0  0  0  0  0  0  0  0  0  0  0  0
    3.7450    0.9206   -2.1575 H   0  0  0  0  0  0  0  0  0  0  0  0
    1.1452    2.1037   -6.0274 H   0  0  0  0  0  0  0  0  0  0  0  0
    0.2724    3.2453   -4.9246 H   0  0  0  0  0  0  0  0  0  0  0  0
   -0.5670    0.3860   -5.7758 H   0  0  0  0  0  0  0  0  0  0  0  0
   -1.4469    1.9239   -6.0132 H   0  0  0  0  0  0  0  0  0  0  0  0
   -0.7344   -0.6917   -3.6112 H   0  0  0  0  0  0  0  0  0  0  0  0
   -1.2992    0.3073   -2.2318 H   0  0  0  0  0  0  0  0  0  0  0  0
   -2.9339   -4.1683    3.7428 H   0  0  0  0  0  0  0  0  0  0  0  0
   -4.1413   -1.8091    7.0241 H   0  0  0  0  0  0  0  0  0  0  0  0
   -2.0616    1.0847    6.1939 H   0  0  0  0  0  0  0  0  0  0  0  0
   -1.2833   -0.2123    4.2590 H   0  0  0  0  0  0  0  0  0  0  0  0
  1  2  2  0
  2  3  1  0
  3  4  1  0
  4  5  2  0
  5  6  1  0
  6  7  2  0
  7  8  1  0
  8  9  2  0
  8 10  1  0
 10 11  1  0
 11 12  1  0
 12 13  2  0
 13 14  1  0
 14 15  1  0
 15 16  1  0
 16 17  1  0
 17 18  1  0
  2 19  1  0
 19 20  2  0
 20 21  1  0
 21 22  2  0
 22 23  1  0
 23 24  1  0
 23 25  2  0
  4  9  1  0
 10 18  2  0
 18 13  1  0
 25 19  1  0
  3 26  1  0
  5 27  1  0
  6 28  1  0
  7 29  1  0
  9 30  1  0
 11 31  1  0
 14 32  1  0
 14 33  1  0
 15 34  1  0
 15 35  1  0
 17 36  1  0
 17 37  1  0
 20 38  1  0
 22 39  1  0
 24 40  1  0
 25 41  1  0
M  END
$$$$
