
     RDKit          3D

 46 48  0  0  0  0  0  0  0  0999 V2000
   -1.7626    2.8725   -4.8733 C   0  0  0  0  0  0  0  0  0  0  0  0
   -2.2464    1.8775   -3.9769 O   0  0  0  0  0  0  0  0  0  0  0  0
   -2.1295    1.9448   -2.5807 C   0  0  0  0  0  0  0  0  0  0  0  0
   -2.6324    0.8826   -1.8204 C   0  0  0  0  0  0  0  0  0  0  0  0
   -2.5338    0.8985   -0.4275 C   0  0  0  0  0  0  0  0  0  0  0  0
   -1.9341    1.9800    0.2204 C   0  0  0  0  0  0  0  0  0  0  0  0
   -1.4296    3.0587   -0.5233 C   0  0  0  0  0  0  0  0  0  0  0  0
   -1.5242    3.0350   -1.9246 C   0  0  0  0  0  0  0  0  0  0  0  0
   -0.7199    4.1949    0.1703 C   0  0  0  0  0  0  0  0  0  0  0  0
    0.8052    4.0317    0.1177 C   0  0  0  0  0  0  0  0  0  0  0  0
    1.2516    2.7987    0.8490 C   0  0  0  0  0  0  0  0  0  0  0  0
    1.4281    2.8531    2.0962 O   0  0  0  0  0  0  0  0  0  0  0  0
    1.3722    1.5528    0.1430 N   0  0  0  0  0  0  0  0  0  0  0  0
    1.6765    0.3004    0.7767 C   0  0  0  0  0  0  0  0  0  0  0  0
    1.0183   -0.8620    0.3515 C   0  0  0  0  0  0  0  0  0  0  0  0
    1.3055   -2.0956    0.9423 C   0  0  0  0  0  0  0  0  0  0  0  0
    2.2607   -2.1854    1.9697 C   0  0  0  0  0  0  0  0  0  0  0  0
    2.9524   -1.0303    2.3612 C   0  0  0  0  0  0  0  0  0  0  0  0
    2.6625    0.2043    1.7728 C   0  0  0  0  0  0  0  0  0  0  0  0
    2.5933   -3.4465    2.5742 N   0  0  0  0  0  0  0  0  0  0  0  0
    1.6426   -4.4874    2.8415 C   0  0  0  0  0  0  0  0  0  0  0  0
    2.0845   -5.7219    3.2045 N   0  0  0  0  0  0  0  0  0  0  0  0
    1.2121   -6.7220    3.4945 C   0  0  0  0  0  0  0  0  0  0  0  0
   -0.1605   -6.4874    3.4312 C   0  0  0  0  0  0  0  0  0  0  0  0
   -0.5998   -5.2146    3.0711 C   0  0  0  0  0  0  0  0  0  0  0  0
    0.3043   -4.2411    2.7891 N   0  0  0  0  0  0  0  0  0  0  0  0
   -1.9897    2.5635   -5.9142 H   0  0  0  0  0  0  0  0  0  0  0  0
   -2.2635    3.8435   -4.6736 H   0  0  0  0  0  0  0  0  0  0  0  0
   -0.6622    2.9799   -4.7659 H   0  0  0  0  0  0  0  0  0  0  0  0
   -3.0973    0.0381   -2.3131 H   0  0  0  0  0  0  0  0  0  0  0  0
   -2.9174    0.0679    0.1508 H   0  0  0  0  0  0  0  0  0  0  0  0
   -1.8495    1.9699    1.3000 H   0  0  0  0  0  0  0  0  0  0  0  0
   -1.1170    3.8610   -2.4924 H   0  0  0  0  0  0  0  0  0  0  0  0
   -0.9958    5.1528   -0.3215 H   0  0  0  0  0  0  0  0  0  0  0  0
   -1.0507    4.2722    1.2295 H   0  0  0  0  0  0  0  0  0  0  0  0
    1.2795    4.9227    0.5832 H   0  0  0  0  0  0  0  0  0  0  0  0
    1.1468    3.9897   -0.9394 H   0  0  0  0  0  0  0  0  0  0  0  0
    1.0611    1.5280   -0.8547 H   0  0  0  0  0  0  0  0  0  0  0  0
    0.2776   -0.8098   -0.4372 H   0  0  0  0  0  0  0  0  0  0  0  0
    0.8008   -2.9801    0.5769 H   0  0  0  0  0  0  0  0  0  0  0  0
    3.7159   -1.0873    3.1270 H   0  0  0  0  0  0  0  0  0  0  0  0
    3.2267    1.0754    2.0780 H   0  0  0  0  0  0  0  0  0  0  0  0
    3.5720   -3.5878    2.9128 H   0  0  0  0  0  0  0  0  0  0  0  0
    1.5847   -7.6977    3.7766 H   0  0  0  0  0  0  0  0  0  0  0  0
   -0.8682   -7.2735    3.6604 H   0  0  0  0  0  0  0  0  0  0  0  0
   -1.6584   -4.9987    3.0187 H   0  0  0  0  0  0  0  0  0  0  0  0
  1  2  1  0
  2  3  1  0
  3  4  2  0
  4  5  1  0
  5  6  2  0
  6  7  1  0
  7  8  2  0
  7  9  1  0
  9 10  1  0
 10 11  1  0
 11 12  2  0
 11 13  1  0
 13 14  1  0
 14 15  2  0
 15 16  1  0
 16 17  2  0
 17 18  1  0
 18 19  2  0
 17 20  1  0
 20 21  1  0
 21 22  2  0
 22 23  1  0
 23 24  2  0
 24 25  1  0
 25 26  2  0
  3  8  1  0
 14 19  1  0
 21 26  1  0
  1 27  1  0
  1 28  1  0
  1 29  1  0
  4 30  1  0
  5 31  1  0
  6 32  1  0
  8 33  1  0
  9 34  1  0
  9 35  1  0
 10 36  1  0
 10 37  1  0
 13 38  1  0
 15 39  1  0
 16 40  1  0
 18 41  1  0
 19 42  1  0
 20 43  1  0
 23 44  1  0
 24 45  1  0
 25 46  1  0
M  END
$$$$
