
     RDKit          3D

 43 45  0  0  0  0  0  0  0  0999 V2000
   -4.2364   -4.7391    1.6745 C   0  0  0  0  0  0  0  0  0  0  0  0
   -3.1439   -3.8185    1.3781 N   0  0  0  0  0  0  0  0  0  0  0  0
   -2.4443   -3.8617    0.2548 N   0  0  0  0  0  0  0  0  0  0  0  0
   -1.5142   -2.8885    0.3083 C   0  0  0  0  0  0  0  0  0  0  0  0
   -1.6306   -2.2050    1.5062 C   0  0  0  0  0  0  0  0  0  0  0  0
   -0.7576   -1.1157    1.9896 C   0  0  0  0  0  0  0  0  0  0  0  0
   -0.5455   -1.0025    3.2271 O   0  0  0  0  0  0  0  0  0  0  0  0
   -0.1377   -0.1898    1.0762 N   0  0  0  0  0  0  0  0  0  0  0  0
    1.1220    0.4626    1.4590 C   0  0  0  0  0  0  0  0  0  0  0  0
    1.9460    0.8018    0.2116 C   0  0  0  0  0  0  0  0  0  0  0  0
    1.1499    1.5991   -0.8578 C   0  0  0  0  0  0  0  0  0  0  0  0
   -0.3584    1.6591   -0.5602 C   0  0  0  0  0  0  0  0  0  0  0  0
   -0.8897    0.3013   -0.0904 C   0  0  0  0  0  0  0  0  0  0  0  0
    1.6437    2.9376   -0.9594 O   0  0  0  0  0  0  0  0  0  0  0  0
    2.8715    3.3143   -1.5292 C   0  0  0  0  0  0  0  0  0  0  0  0
    3.7627    2.3856   -2.1041 C   0  0  0  0  0  0  0  0  0  0  0  0
    4.9706    2.8198   -2.6592 C   0  0  0  0  0  0  0  0  0  0  0  0
    5.3015    4.1781   -2.6465 C   0  0  0  0  0  0  0  0  0  0  0  0
    6.8161    4.7193   -3.3478 Cl  0  0  0  0  0  0  0  0  0  0  0  0
    4.4222    5.1038   -2.0773 C   0  0  0  0  0  0  0  0  0  0  0  0
    3.2137    4.6725   -1.5221 C   0  0  0  0  0  0  0  0  0  0  0  0
   -2.6826   -2.8231    2.1672 C   0  0  0  0  0  0  0  0  0  0  0  0
   -3.2048   -2.4914    3.5380 C   0  0  0  0  0  0  0  0  0  0  0  0
   -3.3822   -1.1252    3.6599 F   0  0  0  0  0  0  0  0  0  0  0  0
   -2.3074   -2.9282    4.4942 F   0  0  0  0  0  0  0  0  0  0  0  0
   -4.3436   -5.4837    0.8571 H   0  0  0  0  0  0  0  0  0  0  0  0
   -5.1878   -4.1749    1.7692 H   0  0  0  0  0  0  0  0  0  0  0  0
   -4.0275   -5.2797    2.6218 H   0  0  0  0  0  0  0  0  0  0  0  0
   -0.7727   -2.7209   -0.4607 H   0  0  0  0  0  0  0  0  0  0  0  0
    0.9011    1.3898    2.0312 H   0  0  0  0  0  0  0  0  0  0  0  0
    1.7249   -0.2110    2.1072 H   0  0  0  0  0  0  0  0  0  0  0  0
    2.8530    1.3615    0.5264 H   0  0  0  0  0  0  0  0  0  0  0  0
    2.2942   -0.1525   -0.2413 H   0  0  0  0  0  0  0  0  0  0  0  0
    1.2622    1.0946   -1.8438 H   0  0  0  0  0  0  0  0  0  0  0  0
   -0.5553    2.4162    0.2308 H   0  0  0  0  0  0  0  0  0  0  0  0
   -0.9067    1.9767   -1.4737 H   0  0  0  0  0  0  0  0  0  0  0  0
   -0.8074   -0.4273   -0.9229 H   0  0  0  0  0  0  0  0  0  0  0  0
   -1.9638    0.4177    0.1732 H   0  0  0  0  0  0  0  0  0  0  0  0
    3.5369    1.3290   -2.1258 H   0  0  0  0  0  0  0  0  0  0  0  0
    5.6488    2.0991   -3.0982 H   0  0  0  0  0  0  0  0  0  0  0  0
    4.6730    6.1570   -2.0657 H   0  0  0  0  0  0  0  0  0  0  0  0
    2.5386    5.3968   -1.0843 H   0  0  0  0  0  0  0  0  0  0  0  0
   -4.1824   -2.9821    3.7186 H   0  0  0  0  0  0  0  0  0  0  0  0
  1  2  1  0
  2  3  1  0
  3  4  2  0
  4  5  1  0
  5  6  1  0
  6  7  2  0
  6  8  1  0
  8  9  1  0
  9 10  1  0
 10 11  1  0
 11 12  1  0
 12 13  1  0
 11 14  1  0
 14 15  1  0
 15 16  2  0
 16 17  1  0
 17 18  2  0
 18 19  1  0
 18 20  1  0
 20 21  2  0
  5 22  2  0
 22 23  1  0
 23 24  1  0
 23 25  1  0
 22  2  1  0
 13  8  1  0
 15 21  1  0
  1 26  1  0
  1 27  1  0
  1 28  1  0
  4 29  1  0
  9 30  1  0
  9 31  1  0
 10 32  1  0
 10 33  1  0
 11 34  1  0
 12 35  1  0
 12 36  1  0
 13 37  1  0
 13 38  1  0
 16 39  1  0
 17 40  1  0
 20 41  1  0
 21 42  1  0
 23 43  1  0
M  END
$$$$
