
     RDKit          3D

 53 57  0  0  0  0  0  0  0  0999 V2000
    1.2255   -4.2959   -1.4593 O   0  0  0  0  0  0  0  0  0  0  0  0
    0.5969   -3.2066   -1.3852 C   0  0  0  0  0  0  0  0  0  0  0  0
    0.2290   -2.4919   -2.6248 C   0  0  0  0  0  0  0  0  0  0  0  0
   -0.0933   -3.2301   -3.7943 C   0  0  0  0  0  0  0  0  0  0  0  0
   -0.4497   -2.5724   -4.9852 C   0  0  0  0  0  0  0  0  0  0  0  0
   -0.4637   -1.1811   -4.9801 C   0  0  0  0  0  0  0  0  0  0  0  0
   -0.7632   -0.2849   -5.9817 C   0  0  0  0  0  0  0  0  0  0  0  0
   -0.5914    0.9770   -5.4061 C   0  0  0  0  0  0  0  0  0  0  0  0
   -0.2049    0.8591   -4.1104 N   0  0  0  0  0  0  0  0  0  0  0  0
   -0.1354   -0.4597   -3.8659 C   0  0  0  0  0  0  0  0  0  0  0  0
    0.2195   -1.0790   -2.6691 C   0  0  0  0  0  0  0  0  0  0  0  0
   -0.7980    2.2739   -6.0972 C   0  0  0  0  0  0  0  0  0  0  0  0
   -1.6192    2.3562   -7.2382 C   0  0  0  0  0  0  0  0  0  0  0  0
   -1.8147    3.5810   -7.8838 C   0  0  0  0  0  0  0  0  0  0  0  0
   -1.1926    4.7345   -7.4033 C   0  0  0  0  0  0  0  0  0  0  0  0
   -0.3741    4.6662   -6.2742 C   0  0  0  0  0  0  0  0  0  0  0  0
   -0.1766    3.4448   -5.6226 C   0  0  0  0  0  0  0  0  0  0  0  0
    0.2151   -2.7129   -0.0987 N   0  0  0  0  0  0  0  0  0  0  0  0
    0.3910   -3.1491    1.2989 C   0  0  0  0  0  0  0  0  0  0  0  0
   -0.5355   -2.1329    1.9010 C   0  0  0  0  0  0  0  0  0  0  0  0
   -0.6923   -1.6993    0.4772 C   0  0  0  0  0  0  0  0  0  0  0  0
    0.1250   -1.1019    2.7246 N   0  0  0  0  0  0  0  0  0  0  0  0
    0.0687   -1.4184    4.1632 C   0  0  0  0  0  0  0  0  0  0  0  0
    1.0157   -2.5838    4.5309 C   0  0  0  0  0  0  0  0  0  0  0  0
    1.4189   -2.4906    6.0104 C   0  0  0  0  0  0  0  0  0  0  0  0
    2.1174   -1.2977    6.3557 O   0  0  0  0  0  0  0  0  0  0  0  0
    1.8415   -0.1895    5.5071 C   0  0  0  0  0  0  0  0  0  0  0  0
    0.3951   -0.1546    4.9894 C   0  0  0  0  0  0  0  0  0  0  0  0
   -0.0822   -4.3130   -3.7780 H   0  0  0  0  0  0  0  0  0  0  0  0
   -0.7049   -3.1320   -5.8759 H   0  0  0  0  0  0  0  0  0  0  0  0
   -1.0495   -0.5210   -6.9980 H   0  0  0  0  0  0  0  0  0  0  0  0
   -0.0210    1.6246   -3.4246 H   0  0  0  0  0  0  0  0  0  0  0  0
    0.5110   -0.4806   -1.8184 H   0  0  0  0  0  0  0  0  0  0  0  0
   -2.1252    1.4810   -7.6235 H   0  0  0  0  0  0  0  0  0  0  0  0
   -2.4527    3.6353   -8.7562 H   0  0  0  0  0  0  0  0  0  0  0  0
   -1.3446    5.6813   -7.9053 H   0  0  0  0  0  0  0  0  0  0  0  0
    0.1116    5.5604   -5.9050 H   0  0  0  0  0  0  0  0  0  0  0  0
    0.4767    3.4190   -4.7610 H   0  0  0  0  0  0  0  0  0  0  0  0
    1.4548   -3.0518    1.6070 H   0  0  0  0  0  0  0  0  0  0  0  0
    0.0153   -4.1873    1.4371 H   0  0  0  0  0  0  0  0  0  0  0  0
   -1.4735   -2.5518    2.3307 H   0  0  0  0  0  0  0  0  0  0  0  0
   -0.3209   -0.6677    0.2919 H   0  0  0  0  0  0  0  0  0  0  0  0
   -1.7307   -1.8434    0.1036 H   0  0  0  0  0  0  0  0  0  0  0  0
    1.1147   -0.9334    2.4236 H   0  0  0  0  0  0  0  0  0  0  0  0
   -0.9715   -1.7134    4.4336 H   0  0  0  0  0  0  0  0  0  0  0  0
    0.5105   -3.5556    4.3406 H   0  0  0  0  0  0  0  0  0  0  0  0
    1.9424   -2.5510    3.9183 H   0  0  0  0  0  0  0  0  0  0  0  0
    2.0698   -3.3572    6.2523 H   0  0  0  0  0  0  0  0  0  0  0  0
    0.5119   -2.5753    6.6480 H   0  0  0  0  0  0  0  0  0  0  0  0
    2.0323    0.7433    6.0795 H   0  0  0  0  0  0  0  0  0  0  0  0
    2.5499   -0.1958    4.6501 H   0  0  0  0  0  0  0  0  0  0  0  0
    0.2363    0.7659    4.3859 H   0  0  0  0  0  0  0  0  0  0  0  0
   -0.2879   -0.0959    5.8653 H   0  0  0  0  0  0  0  0  0  0  0  0
  1  2  2  0
  2  3  1  0
  3  4  2  0
  4  5  1  0
  5  6  2  0
  6  7  1  0
  7  8  2  0
  8  9  1  0
  9 10  1  0
 10 11  2  0
  8 12  1  0
 12 13  2  0
 13 14  1  0
 14 15  2  0
 15 16  1  0
 16 17  2  0
  2 18  1  0
 18 19  1  0
 19 20  1  0
 20 21  1  0
 20 22  1  0
 22 23  1  0
 23 24  1  0
 24 25  1  0
 25 26  1  0
 26 27  1  0
 27 28  1  0
  3 11  1  0
  6 10  1  0
 12 17  1  0
 21 18  1  0
 28 23  1  0
  4 29  1  0
  5 30  1  0
  7 31  1  0
  9 32  1  0
 11 33  1  0
 13 34  1  0
 14 35  1  0
 15 36  1  0
 16 37  1  0
 17 38  1  0
 19 39  1  0
 19 40  1  0
 20 41  1  0
 21 42  1  0
 21 43  1  0
 22 44  1  0
 23 45  1  0
 24 46  1  0
 24 47  1  0
 25 48  1  0
 25 49  1  0
 27 50  1  0
 27 51  1  0
 28 52  1  0
 28 53  1  0
M  END
$$$$
