
     RDKit          3D

 49 51  0  0  0  0  0  0  0  0999 V2000
   -1.3815    1.0628    7.4183 C   0  0  0  0  0  0  0  0  0  0  0  0
   -1.4520    1.0464    5.9264 C   0  0  0  0  0  0  0  0  0  0  0  0
   -1.5382   -0.0583    5.3254 O   0  0  0  0  0  0  0  0  0  0  0  0
   -1.3224    2.2732    5.1911 N   0  0  0  0  0  0  0  0  0  0  0  0
   -1.5409    2.3915    3.7745 C   0  0  0  0  0  0  0  0  0  0  0  0
   -2.5260    1.6332    3.1173 C   0  0  0  0  0  0  0  0  0  0  0  0
   -2.7321    1.7833    1.7427 C   0  0  0  0  0  0  0  0  0  0  0  0
   -1.9695    2.7027    1.0066 C   0  0  0  0  0  0  0  0  0  0  0  0
   -0.9978    3.4720    1.6639 C   0  0  0  0  0  0  0  0  0  0  0  0
   -0.7936    3.3237    3.0390 C   0  0  0  0  0  0  0  0  0  0  0  0
   -2.1827    2.8386   -0.4766 C   0  0  0  0  0  0  0  0  0  0  0  0
   -1.7023    1.6440   -1.1664 N   0  0  0  0  0  0  0  0  0  0  0  0
   -0.3054    1.3527   -1.3173 C   0  0  0  0  0  0  0  0  0  0  0  0
    0.5594    2.1921   -0.9430 O   0  0  0  0  0  0  0  0  0  0  0  0
    0.1302    0.0715   -1.9828 C   0  0  0  0  0  0  0  0  0  0  0  0
    1.3220   -0.5642   -1.2455 C   0  0  0  0  0  0  0  0  0  0  0  0
    1.6654   -1.9200   -1.8800 C   0  0  0  0  0  0  0  0  0  0  0  0
    1.6412   -1.8616   -3.3537 N   0  0  0  0  0  0  0  0  0  0  0  0
    1.6061   -0.5436   -4.0111 C   0  0  0  0  0  0  0  0  0  0  0  0
    0.4390    0.3096   -3.4827 C   0  0  0  0  0  0  0  0  0  0  0  0
    1.6987   -3.0760   -4.1416 C   0  0  0  0  0  0  0  0  0  0  0  0
    2.1032   -4.3043   -3.5827 C   0  0  0  0  0  0  0  0  0  0  0  0
    2.1396   -5.4180   -4.3612 N   0  0  0  0  0  0  0  0  0  0  0  0
    1.7896   -5.3767   -5.6720 C   0  0  0  0  0  0  0  0  0  0  0  0
    1.3864   -4.1671   -6.2338 C   0  0  0  0  0  0  0  0  0  0  0  0
    1.3504   -3.0519   -5.4596 N   0  0  0  0  0  0  0  0  0  0  0  0
   -1.8927    0.1700    7.8384 H   0  0  0  0  0  0  0  0  0  0  0  0
   -0.3184    1.0590    7.7385 H   0  0  0  0  0  0  0  0  0  0  0  0
   -1.8792    1.9749    7.8116 H   0  0  0  0  0  0  0  0  0  0  0  0
   -0.9582    3.1086    5.7028 H   0  0  0  0  0  0  0  0  0  0  0  0
   -3.1530    0.9435    3.6664 H   0  0  0  0  0  0  0  0  0  0  0  0
   -3.4906    1.1866    1.2513 H   0  0  0  0  0  0  0  0  0  0  0  0
   -0.3964    4.1861    1.1139 H   0  0  0  0  0  0  0  0  0  0  0  0
   -0.0413    3.9272    3.5319 H   0  0  0  0  0  0  0  0  0  0  0  0
   -3.2700    2.9639   -0.6730 H   0  0  0  0  0  0  0  0  0  0  0  0
   -1.6723    3.7389   -0.8833 H   0  0  0  0  0  0  0  0  0  0  0  0
   -2.4076    0.9833   -1.5644 H   0  0  0  0  0  0  0  0  0  0  0  0
   -0.7131   -0.6533   -1.9160 H   0  0  0  0  0  0  0  0  0  0  0  0
    2.2090    0.1058   -1.3000 H   0  0  0  0  0  0  0  0  0  0  0  0
    1.0714   -0.7161   -0.1725 H   0  0  0  0  0  0  0  0  0  0  0  0
    0.9154   -2.6644   -1.5324 H   0  0  0  0  0  0  0  0  0  0  0  0
    2.6713   -2.2400   -1.5327 H   0  0  0  0  0  0  0  0  0  0  0  0
    1.5213   -0.6256   -5.1155 H   0  0  0  0  0  0  0  0  0  0  0  0
    2.5657   -0.0197   -3.8037 H   0  0  0  0  0  0  0  0  0  0  0  0
    0.6862    1.3779   -3.6738 H   0  0  0  0  0  0  0  0  0  0  0  0
   -0.4743    0.0784   -4.0743 H   0  0  0  0  0  0  0  0  0  0  0  0
    2.3966   -4.3855   -2.5460 H   0  0  0  0  0  0  0  0  0  0  0  0
    1.8258   -6.2756   -6.2723 H   0  0  0  0  0  0  0  0  0  0  0  0
    1.1039   -4.1133   -7.2765 H   0  0  0  0  0  0  0  0  0  0  0  0
  1  2  1  0
  2  3  2  0
  2  4  1  0
  4  5  1  0
  5  6  2  0
  6  7  1  0
  7  8  2  0
  8  9  1  0
  9 10  2  0
  8 11  1  0
 11 12  1  0
 12 13  1  0
 13 14  2  0
 13 15  1  0
 15 16  1  0
 16 17  1  0
 17 18  1  0
 18 19  1  0
 19 20  1  0
 18 21  1  0
 21 22  2  0
 22 23  1  0
 23 24  2  0
 24 25  1  0
 25 26  2  0
  5 10  1  0
 20 15  1  0
 26 21  1  0
  1 27  1  0
  1 28  1  0
  1 29  1  0
  4 30  1  0
  6 31  1  0
  7 32  1  0
  9 33  1  0
 10 34  1  0
 11 35  1  0
 11 36  1  0
 12 37  1  0
 15 38  1  0
 16 39  1  0
 16 40  1  0
 17 41  1  0
 17 42  1  0
 19 43  1  0
 19 44  1  0
 20 45  1  0
 20 46  1  0
 22 47  1  0
 24 48  1  0
 25 49  1  0
M  END
$$$$
