
     RDKit          3D

 47 49  0  0  0  0  0  0  0  0999 V2000
   -4.7174   -0.9869    1.0565 C   0  0  0  0  0  0  0  0  0  0  0  0
   -3.6331    0.0012    1.3690 C   0  0  0  0  0  0  0  0  0  0  0  0
   -2.3394   -0.4434    1.6773 C   0  0  0  0  0  0  0  0  0  0  0  0
   -1.3187    0.4772    1.9308 C   0  0  0  0  0  0  0  0  0  0  0  0
   -1.5692    1.8582    1.8543 C   0  0  0  0  0  0  0  0  0  0  0  0
   -2.8677    2.2992    1.5479 C   0  0  0  0  0  0  0  0  0  0  0  0
   -3.8883    1.3781    1.2955 C   0  0  0  0  0  0  0  0  0  0  0  0
   -0.4610    2.8590    2.1107 C   0  0  0  0  0  0  0  0  0  0  0  0
    0.2843    3.3321    0.8231 C   0  0  0  0  0  0  0  0  0  0  0  0
    1.3754    4.3352    1.2473 C   0  0  0  0  0  0  0  0  0  0  0  0
   -0.7084    4.0312   -0.1340 C   0  0  0  0  0  0  0  0  0  0  0  0
    0.9199    2.1766    0.1583 N   0  0  0  0  0  0  0  0  0  0  0  0
    1.5176    2.2013   -1.1513 C   0  0  0  0  0  0  0  0  0  0  0  0
    1.8273    3.2954   -1.6936 O   0  0  0  0  0  0  0  0  0  0  0  0
    1.7902    0.9478   -1.8744 C   0  0  0  0  0  0  0  0  0  0  0  0
    1.3872   -0.3229   -1.5081 C   0  0  0  0  0  0  0  0  0  0  0  0
    1.8703   -1.1169   -2.5256 C   0  0  0  0  0  0  0  0  0  0  0  0
    2.4940   -0.3613   -3.3989 O   0  0  0  0  0  0  0  0  0  0  0  0
    2.4635    0.8895   -3.0409 N   0  0  0  0  0  0  0  0  0  0  0  0
    1.7193   -2.5710   -2.6397 C   0  0  0  0  0  0  0  0  0  0  0  0
    2.2134   -3.3575   -3.6643 C   0  0  0  0  0  0  0  0  0  0  0  0
    1.8302   -4.6384   -3.3266 C   0  0  0  0  0  0  0  0  0  0  0  0
    1.1398   -4.5851   -2.1720 N   0  0  0  0  0  0  0  0  0  0  0  0
    0.6156   -5.7286   -1.4387 C   0  0  0  0  0  0  0  0  0  0  0  0
    1.0763   -3.3372   -1.7368 N   0  0  0  0  0  0  0  0  0  0  0  0
   -5.7123   -0.5782    1.3343 H   0  0  0  0  0  0  0  0  0  0  0  0
   -4.7091   -1.2122   -0.0303 H   0  0  0  0  0  0  0  0  0  0  0  0
   -4.5636   -1.9299    1.6233 H   0  0  0  0  0  0  0  0  0  0  0  0
   -2.1212   -1.5032    1.7260 H   0  0  0  0  0  0  0  0  0  0  0  0
   -0.3350    0.1088    2.1919 H   0  0  0  0  0  0  0  0  0  0  0  0
   -3.0901    3.3576    1.4985 H   0  0  0  0  0  0  0  0  0  0  0  0
   -4.8780    1.7394    1.0444 H   0  0  0  0  0  0  0  0  0  0  0  0
   -0.8905    3.7391    2.6396 H   0  0  0  0  0  0  0  0  0  0  0  0
    0.2734    2.4116    2.8172 H   0  0  0  0  0  0  0  0  0  0  0  0
    0.9290    5.1875    1.8040 H   0  0  0  0  0  0  0  0  0  0  0  0
    2.1220    3.8380    1.9032 H   0  0  0  0  0  0  0  0  0  0  0  0
    1.9111    4.7490    0.3686 H   0  0  0  0  0  0  0  0  0  0  0  0
   -1.3182    4.7812    0.4138 H   0  0  0  0  0  0  0  0  0  0  0  0
   -0.1810    4.5707   -0.9470 H   0  0  0  0  0  0  0  0  0  0  0  0
   -1.3864    3.2883   -0.6047 H   0  0  0  0  0  0  0  0  0  0  0  0
    0.9800    1.2769    0.6811 H   0  0  0  0  0  0  0  0  0  0  0  0
    0.8140   -0.6301   -0.6433 H   0  0  0  0  0  0  0  0  0  0  0  0
    2.7816   -3.0444   -4.5302 H   0  0  0  0  0  0  0  0  0  0  0  0
    2.0477   -5.5429   -3.8800 H   0  0  0  0  0  0  0  0  0  0  0  0
    0.2130   -6.4837   -2.1469 H   0  0  0  0  0  0  0  0  0  0  0  0
   -0.2027   -5.4036   -0.7616 H   0  0  0  0  0  0  0  0  0  0  0  0
    1.4271   -6.1866   -0.8357 H   0  0  0  0  0  0  0  0  0  0  0  0
  1  2  1  0
  2  3  2  0
  3  4  1  0
  4  5  2  0
  5  6  1  0
  6  7  2  0
  5  8  1  0
  8  9  1  0
  9 10  1  0
  9 11  1  0
  9 12  1  0
 12 13  1  0
 13 14  2  0
 13 15  1  0
 15 16  1  0
 16 17  2  0
 17 18  1  0
 18 19  1  0
 17 20  1  0
 20 21  1  0
 21 22  2  0
 22 23  1  0
 23 24  1  0
 23 25  1  0
  2  7  1  0
 15 19  2  0
 20 25  2  0
  1 26  1  0
  1 27  1  0
  1 28  1  0
  3 29  1  0
  4 30  1  0
  6 31  1  0
  7 32  1  0
  8 33  1  0
  8 34  1  0
 10 35  1  0
 10 36  1  0
 10 37  1  0
 11 38  1  0
 11 39  1  0
 11 40  1  0
 12 41  1  0
 16 42  1  0
 21 43  1  0
 22 44  1  0
 24 45  1  0
 24 46  1  0
 24 47  1  0
M  END
$$$$
