
     RDKit          3D

 49 52  0  0  0  0  0  0  0  0999 V2000
   -3.4107   -0.6929   -4.1455 C   0  0  0  0  0  0  0  0  0  0  0  0
   -2.1389   -0.1410   -3.5930 C   0  0  0  0  0  0  0  0  0  0  0  0
   -1.6969   -0.5435   -2.3761 N   0  0  0  0  0  0  0  0  0  0  0  0
   -0.5689   -0.0240   -1.8263 C   0  0  0  0  0  0  0  0  0  0  0  0
    0.1584    0.9666   -2.5161 C   0  0  0  0  0  0  0  0  0  0  0  0
    1.3737    1.5980   -1.8835 C   0  0  0  0  0  0  0  0  0  0  0  0
   -0.2988    1.3419   -3.8020 C   0  0  0  0  0  0  0  0  0  0  0  0
   -1.4469    0.7975   -4.2861 N   0  0  0  0  0  0  0  0  0  0  0  0
    0.3954    2.3005   -4.6138 N   0  0  0  0  0  0  0  0  0  0  0  0
    1.7133    2.3197   -4.8967 C   0  0  0  0  0  0  0  0  0  0  0  0
    1.9512    3.3399   -5.7920 C   0  0  0  0  0  0  0  0  0  0  0  0
    0.7094    3.8938   -6.0311 C   0  0  0  0  0  0  0  0  0  0  0  0
   -0.2235    3.2375   -5.3144 N   0  0  0  0  0  0  0  0  0  0  0  0
   -0.1382   -0.4967   -0.5427 N   0  0  0  0  0  0  0  0  0  0  0  0
   -0.7537    0.0533    0.6664 C   0  0  0  0  0  0  0  0  0  0  0  0
   -1.9505   -0.8028    1.1003 C   0  0  0  0  0  0  0  0  0  0  0  0
   -1.5488   -2.0080    1.9699 C   0  0  0  0  0  0  0  0  0  0  0  0
   -0.5191   -2.8922    1.3829 N   0  0  0  0  0  0  0  0  0  0  0  0
   -0.2515   -2.9100   -0.0656 C   0  0  0  0  0  0  0  0  0  0  0  0
    0.6417   -1.7316   -0.4674 C   0  0  0  0  0  0  0  0  0  0  0  0
    0.1970   -3.8040    2.2544 C   0  0  0  0  0  0  0  0  0  0  0  0
    1.5472   -4.1251    2.0144 C   0  0  0  0  0  0  0  0  0  0  0  0
    2.2145   -5.0080    2.8665 C   0  0  0  0  0  0  0  0  0  0  0  0
    1.5652   -5.5578    3.9247 N   0  0  0  0  0  0  0  0  0  0  0  0
    0.2637   -5.2706    4.1865 C   0  0  0  0  0  0  0  0  0  0  0  0
   -0.4415   -4.3911    3.3632 C   0  0  0  0  0  0  0  0  0  0  0  0
   -4.2632   -0.0701   -3.8031 H   0  0  0  0  0  0  0  0  0  0  0  0
   -3.3799   -0.6897   -5.2555 H   0  0  0  0  0  0  0  0  0  0  0  0
   -3.5578   -1.7377   -3.7969 H   0  0  0  0  0  0  0  0  0  0  0  0
    2.2820    1.0211   -2.1561 H   0  0  0  0  0  0  0  0  0  0  0  0
    1.4868    2.6534   -2.2085 H   0  0  0  0  0  0  0  0  0  0  0  0
    1.2849    1.6214   -0.7773 H   0  0  0  0  0  0  0  0  0  0  0  0
    2.4469    1.6234   -4.5137 H   0  0  0  0  0  0  0  0  0  0  0  0
    2.8972    3.6249   -6.2321 H   0  0  0  0  0  0  0  0  0  0  0  0
    0.4962    4.7167   -6.7008 H   0  0  0  0  0  0  0  0  0  0  0  0
   -1.1043    1.0900    0.4663 H   0  0  0  0  0  0  0  0  0  0  0  0
    0.0003    0.1181    1.4808 H   0  0  0  0  0  0  0  0  0  0  0  0
   -2.6338   -0.1658    1.7035 H   0  0  0  0  0  0  0  0  0  0  0  0
   -2.5346   -1.1396    0.2174 H   0  0  0  0  0  0  0  0  0  0  0  0
   -2.4644   -2.6034    2.1739 H   0  0  0  0  0  0  0  0  0  0  0  0
   -1.1777   -1.6147    2.9421 H   0  0  0  0  0  0  0  0  0  0  0  0
   -1.2060   -2.8898   -0.6343 H   0  0  0  0  0  0  0  0  0  0  0  0
    0.2468   -3.8607   -0.3556 H   0  0  0  0  0  0  0  0  0  0  0  0
    1.1087   -1.9473   -1.4536 H   0  0  0  0  0  0  0  0  0  0  0  0
    1.4669   -1.6018    0.2643 H   0  0  0  0  0  0  0  0  0  0  0  0
    2.0891   -3.6944    1.1845 H   0  0  0  0  0  0  0  0  0  0  0  0
    3.2525   -5.2547    2.6862 H   0  0  0  0  0  0  0  0  0  0  0  0
   -0.2260   -5.7273    5.0353 H   0  0  0  0  0  0  0  0  0  0  0  0
   -1.4805   -4.1889    3.5845 H   0  0  0  0  0  0  0  0  0  0  0  0
  1  2  1  0
  2  3  2  0
  3  4  1  0
  4  5  2  0
  5  6  1  0
  5  7  1  0
  7  8  2  0
  7  9  1  0
  9 10  1  0
 10 11  2  0
 11 12  1  0
 12 13  2  0
  4 14  1  0
 14 15  1  0
 15 16  1  0
 16 17  1  0
 17 18  1  0
 18 19  1  0
 19 20  1  0
 18 21  1  0
 21 22  2  0
 22 23  1  0
 23 24  2  0
 24 25  1  0
 25 26  2  0
  8  2  1  0
 13  9  1  0
 20 14  1  0
 21 26  1  0
  1 27  1  0
  1 28  1  0
  1 29  1  0
  6 30  1  0
  6 31  1  0
  6 32  1  0
 10 33  1  0
 11 34  1  0
 12 35  1  0
 15 36  1  0
 15 37  1  0
 16 38  1  0
 16 39  1  0
 17 40  1  0
 17 41  1  0
 19 42  1  0
 19 43  1  0
 20 44  1  0
 20 45  1  0
 22 46  1  0
 23 47  1  0
 25 48  1  0
 26 49  1  0
M  END
$$$$
