
     RDKit          3D

 43 45  0  0  0  0  0  0  0  0999 V2000
   -2.1019   -2.1155   -3.6256 C   0  0  0  0  0  0  0  0  0  0  0  0
   -0.6161   -2.8737   -2.8990 S   0  0  0  0  0  0  0  0  0  0  0  0
   -1.2893   -2.8825   -1.2281 C   0  0  0  0  0  0  0  0  0  0  0  0
   -2.0123   -4.0080   -0.8107 C   0  0  0  0  0  0  0  0  0  0  0  0
   -2.6251   -4.0366    0.4499 C   0  0  0  0  0  0  0  0  0  0  0  0
   -3.3682   -5.2592    0.9011 C   0  0  0  0  0  0  0  0  0  0  0  0
   -2.4893   -2.9366    1.3069 C   0  0  0  0  0  0  0  0  0  0  0  0
   -1.7665   -1.8127    0.9013 C   0  0  0  0  0  0  0  0  0  0  0  0
   -1.1479   -1.7782   -0.3579 C   0  0  0  0  0  0  0  0  0  0  0  0
   -0.3841   -0.5747   -0.7377 C   0  0  0  0  0  0  0  0  0  0  0  0
   -0.9430    0.5535   -0.6667 O   0  0  0  0  0  0  0  0  0  0  0  0
    0.9828   -0.6821   -1.1645 N   0  0  0  0  0  0  0  0  0  0  0  0
    1.7662    0.4516   -1.5544 C   0  0  0  0  0  0  0  0  0  0  0  0
    2.4904    0.5102   -2.6801 N   0  0  0  0  0  0  0  0  0  0  0  0
    3.0745    1.6971   -2.7149 N   0  0  0  0  0  0  0  0  0  0  0  0
    2.7644    2.4042   -1.6353 N   0  0  0  0  0  0  0  0  0  0  0  0
    1.9398    1.6476   -0.8818 C   0  0  0  0  0  0  0  0  0  0  0  0
    1.4734    2.0029    0.4763 C   0  0  0  0  0  0  0  0  0  0  0  0
    1.1873    1.0742    1.2798 O   0  0  0  0  0  0  0  0  0  0  0  0
    1.3398    3.3712    0.9094 N   0  0  0  0  0  0  0  0  0  0  0  0
    0.7916    3.7221    2.2089 C   0  0  0  0  0  0  0  0  0  0  0  0
    0.5215    5.2192    2.1563 C   0  0  0  0  0  0  0  0  0  0  0  0
    1.3099    5.7469    0.9616 C   0  0  0  0  0  0  0  0  0  0  0  0
    1.6052    4.5378    0.0830 C   0  0  0  0  0  0  0  0  0  0  0  0
   -2.2814   -1.1182   -3.1724 H   0  0  0  0  0  0  0  0  0  0  0  0
   -2.9841   -2.7679   -3.4571 H   0  0  0  0  0  0  0  0  0  0  0  0
   -1.9487   -1.9918   -4.7171 H   0  0  0  0  0  0  0  0  0  0  0  0
   -2.1102   -4.8565   -1.4774 H   0  0  0  0  0  0  0  0  0  0  0  0
   -3.8403   -5.7719    0.0360 H   0  0  0  0  0  0  0  0  0  0  0  0
   -2.6621   -5.9586    1.3954 H   0  0  0  0  0  0  0  0  0  0  0  0
   -4.1716   -4.9881    1.6188 H   0  0  0  0  0  0  0  0  0  0  0  0
   -2.9424   -2.9487    2.2906 H   0  0  0  0  0  0  0  0  0  0  0  0
   -1.6734   -0.9731    1.5799 H   0  0  0  0  0  0  0  0  0  0  0  0
    1.3917   -1.6291   -1.3256 H   0  0  0  0  0  0  0  0  0  0  0  0
    2.5807   -0.2252   -3.4154 H   0  0  0  0  0  0  0  0  0  0  0  0
   -0.1534    3.1668    2.3973 H   0  0  0  0  0  0  0  0  0  0  0  0
    1.5335    3.4843    3.0016 H   0  0  0  0  0  0  0  0  0  0  0  0
    0.8328    5.7195    3.0990 H   0  0  0  0  0  0  0  0  0  0  0  0
   -0.5640    5.3971    1.9910 H   0  0  0  0  0  0  0  0  0  0  0  0
    2.2645    6.1942    1.3168 H   0  0  0  0  0  0  0  0  0  0  0  0
    0.7325    6.5179    0.4065 H   0  0  0  0  0  0  0  0  0  0  0  0
    0.9370    4.5289   -0.8054 H   0  0  0  0  0  0  0  0  0  0  0  0
    2.6697    4.5567   -0.2336 H   0  0  0  0  0  0  0  0  0  0  0  0
  1  2  1  0
  2  3  1  0
  3  4  2  0
  4  5  1  0
  5  6  1  0
  5  7  2  0
  7  8  1  0
  8  9  2  0
  9 10  1  0
 10 11  2  0
 10 12  1  0
 12 13  1  0
 13 14  1  0
 14 15  1  0
 15 16  2  0
 16 17  1  0
 17 18  1  0
 18 19  2  0
 18 20  1  0
 20 21  1  0
 21 22  1  0
 22 23  1  0
 23 24  1  0
  3  9  1  0
 13 17  2  0
 24 20  1  0
  1 25  1  0
  1 26  1  0
  1 27  1  0
  4 28  1  0
  6 29  1  0
  6 30  1  0
  6 31  1  0
  7 32  1  0
  8 33  1  0
 12 34  1  0
 14 35  1  0
 21 36  1  0
 21 37  1  0
 22 38  1  0
 22 39  1  0
 23 40  1  0
 23 41  1  0
 24 42  1  0
 24 43  1  0
M  END
$$$$
