
     RDKit          3D

 47 48  0  0  0  0  0  0  0  0999 V2000
    1.0021   -1.2975    2.8908 C   0  0  0  0  0  0  0  0  0  0  0  0
    0.0981   -1.0978    1.7114 C   0  0  0  0  0  0  0  0  0  0  0  0
    0.5079   -1.2618    0.4038 C   0  0  0  0  0  0  0  0  0  0  0  0
   -0.6206   -1.0083   -0.3474 C   0  0  0  0  0  0  0  0  0  0  0  0
   -1.6521   -0.7328    0.4709 N   0  0  0  0  0  0  0  0  0  0  0  0
   -1.2300   -0.7969    1.7279 N   0  0  0  0  0  0  0  0  0  0  0  0
   -2.1094   -0.4615    2.8771 C   0  0  0  0  0  0  0  0  0  0  0  0
   -1.9344   -1.4683    4.0358 C   0  0  0  0  0  0  0  0  0  0  0  0
   -1.8005    0.9674    3.3600 C   0  0  0  0  0  0  0  0  0  0  0  0
   -3.5923   -0.5125    2.4355 C   0  0  0  0  0  0  0  0  0  0  0  0
   -0.7425   -1.0398   -1.8180 C   0  0  0  0  0  0  0  0  0  0  0  0
   -1.8877   -1.2113   -2.3176 O   0  0  0  0  0  0  0  0  0  0  0  0
    0.3941   -0.8587   -2.6911 N   0  0  0  0  0  0  0  0  0  0  0  0
    0.2885   -1.2616   -4.0953 C   0  0  0  0  0  0  0  0  0  0  0  0
    1.5493   -0.1039   -2.2756 C   0  0  0  0  0  0  0  0  0  0  0  0
    2.7981   -0.7410   -2.2645 C   0  0  0  0  0  0  0  0  0  0  0  0
    3.9310   -0.0729   -1.8088 C   0  0  0  0  0  0  0  0  0  0  0  0
    3.8321    1.2376   -1.3479 C   0  0  0  0  0  0  0  0  0  0  0  0
    2.5977    1.9069   -1.3533 C   0  0  0  0  0  0  0  0  0  0  0  0
    2.5404    3.3238   -0.8430 C   0  0  0  0  0  0  0  0  0  0  0  0
    1.4477    1.2524   -1.8681 C   0  0  0  0  0  0  0  0  0  0  0  0
    0.1252    1.9799   -1.9525 C   0  0  0  0  0  0  0  0  0  0  0  0
    0.7536   -2.2520    3.3982 H   0  0  0  0  0  0  0  0  0  0  0  0
    0.9259   -0.4498    3.5977 H   0  0  0  0  0  0  0  0  0  0  0  0
    2.0596   -1.3549    2.5562 H   0  0  0  0  0  0  0  0  0  0  0  0
    1.4913   -1.5489    0.0600 H   0  0  0  0  0  0  0  0  0  0  0  0
   -1.9111   -2.5076    3.6438 H   0  0  0  0  0  0  0  0  0  0  0  0
   -2.7728   -1.3889    4.7613 H   0  0  0  0  0  0  0  0  0  0  0  0
   -1.0121   -1.2755    4.6170 H   0  0  0  0  0  0  0  0  0  0  0  0
   -2.4753    1.2532    4.1958 H   0  0  0  0  0  0  0  0  0  0  0  0
   -1.9398    1.6924    2.5294 H   0  0  0  0  0  0  0  0  0  0  0  0
   -0.7560    1.0561    3.7177 H   0  0  0  0  0  0  0  0  0  0  0  0
   -3.8476   -1.5257    2.0565 H   0  0  0  0  0  0  0  0  0  0  0  0
   -4.2708   -0.2744    3.2833 H   0  0  0  0  0  0  0  0  0  0  0  0
   -3.7920    0.2255    1.6287 H   0  0  0  0  0  0  0  0  0  0  0  0
    1.2905   -1.3182   -4.5718 H   0  0  0  0  0  0  0  0  0  0  0  0
   -0.3281   -0.5226   -4.6488 H   0  0  0  0  0  0  0  0  0  0  0  0
   -0.1840   -2.2641   -4.1701 H   0  0  0  0  0  0  0  0  0  0  0  0
    2.8846   -1.7714   -2.5863 H   0  0  0  0  0  0  0  0  0  0  0  0
    4.8877   -0.5789   -1.7970 H   0  0  0  0  0  0  0  0  0  0  0  0
    4.7247    1.7313   -0.9838 H   0  0  0  0  0  0  0  0  0  0  0  0
    2.4546    4.0256   -1.6987 H   0  0  0  0  0  0  0  0  0  0  0  0
    3.4524    3.5857   -0.2652 H   0  0  0  0  0  0  0  0  0  0  0  0
    1.6700    3.4543   -0.1662 H   0  0  0  0  0  0  0  0  0  0  0  0
   -0.3977    1.9177   -0.9753 H   0  0  0  0  0  0  0  0  0  0  0  0
    0.2709    3.0464   -2.2201 H   0  0  0  0  0  0  0  0  0  0  0  0
   -0.5239    1.5529   -2.7444 H   0  0  0  0  0  0  0  0  0  0  0  0
  1  2  1  0
  2  3  2  0
  3  4  1  0
  4  5  2  0
  5  6  1  0
  6  7  1  0
  7  8  1  0
  7  9  1  0
  7 10  1  0
  4 11  1  0
 11 12  2  0
 11 13  1  0
 13 14  1  0
 13 15  1  0
 15 16  2  0
 16 17  1  0
 17 18  2  0
 18 19  1  0
 19 20  1  0
 19 21  2  0
 21 22  1  0
  6  2  1  0
 15 21  1  0
  1 23  1  0
  1 24  1  0
  1 25  1  0
  3 26  1  0
  8 27  1  0
  8 28  1  0
  8 29  1  0
  9 30  1  0
  9 31  1  0
  9 32  1  0
 10 33  1  0
 10 34  1  0
 10 35  1  0
 14 36  1  0
 14 37  1  0
 14 38  1  0
 16 39  1  0
 17 40  1  0
 18 41  1  0
 20 42  1  0
 20 43  1  0
 20 44  1  0
 22 45  1  0
 22 46  1  0
 22 47  1  0
M  END
$$$$
