
     RDKit          3D

 49 51  0  0  0  0  0  0  0  0999 V2000
   -0.4970    3.1305   -5.9763 C   0  0  0  0  0  0  0  0  0  0  0  0
    0.7219    2.4257   -6.1803 O   0  0  0  0  0  0  0  0  0  0  0  0
    1.3548    1.7028   -5.1642 C   0  0  0  0  0  0  0  0  0  0  0  0
    2.5325    1.0811   -5.4252 N   0  0  0  0  0  0  0  0  0  0  0  0
    3.1690    0.3562   -4.4682 C   0  0  0  0  0  0  0  0  0  0  0  0
    4.4811   -0.2932   -4.7809 C   0  0  0  0  0  0  0  0  0  0  0  0
    2.6151    0.2573   -3.1872 C   0  0  0  0  0  0  0  0  0  0  0  0
    1.3900    0.8962   -2.9209 C   0  0  0  0  0  0  0  0  0  0  0  0
    0.8007    1.6067   -3.9241 N   0  0  0  0  0  0  0  0  0  0  0  0
    0.7346    0.7802   -1.6317 N   0  0  0  0  0  0  0  0  0  0  0  0
    1.2826   -0.1035   -0.5871 C   0  0  0  0  0  0  0  0  0  0  0  0
    0.3945   -0.1477    0.6633 C   0  0  0  0  0  0  0  0  0  0  0  0
   -1.0204   -0.2958    0.2780 N   0  0  0  0  0  0  0  0  0  0  0  0
   -1.5616    0.5850   -0.7731 C   0  0  0  0  0  0  0  0  0  0  0  0
   -0.4976    1.5304   -1.3415 C   0  0  0  0  0  0  0  0  0  0  0  0
   -1.9341   -1.2157    0.9304 C   0  0  0  0  0  0  0  0  0  0  0  0
   -3.1467   -1.2253    0.5725 O   0  0  0  0  0  0  0  0  0  0  0  0
   -1.4773   -2.2376    1.9605 C   0  0  0  0  0  0  0  0  0  0  0  0
   -2.6285   -2.6641    2.9163 C   0  0  0  0  0  0  0  0  0  0  0  0
   -3.3510   -3.9231    2.4164 C   0  0  0  0  0  0  0  0  0  0  0  0
   -2.3947   -5.1318    2.3277 C   0  0  0  0  0  0  0  0  0  0  0  0
   -0.9276   -4.7343    2.0674 C   0  0  0  0  0  0  0  0  0  0  0  0
   -0.8302   -3.4496    1.2351 C   0  0  0  0  0  0  0  0  0  0  0  0
   -0.8246    3.5766   -6.9385 H   0  0  0  0  0  0  0  0  0  0  0  0
   -0.3459    3.9427   -5.2324 H   0  0  0  0  0  0  0  0  0  0  0  0
   -1.2858    2.4353   -5.6150 H   0  0  0  0  0  0  0  0  0  0  0  0
    5.3108    0.3359   -4.3884 H   0  0  0  0  0  0  0  0  0  0  0  0
    4.6021   -0.4087   -5.8806 H   0  0  0  0  0  0  0  0  0  0  0  0
    4.5342   -1.3024   -4.3121 H   0  0  0  0  0  0  0  0  0  0  0  0
    3.1350   -0.3123   -2.4293 H   0  0  0  0  0  0  0  0  0  0  0  0
    2.2951    0.2481   -0.2919 H   0  0  0  0  0  0  0  0  0  0  0  0
    1.3625   -1.1370   -0.9916 H   0  0  0  0  0  0  0  0  0  0  0  0
    0.5155    0.7938    1.2421 H   0  0  0  0  0  0  0  0  0  0  0  0
    0.7599   -0.9763    1.2953 H   0  0  0  0  0  0  0  0  0  0  0  0
   -2.3965    1.1915   -0.3599 H   0  0  0  0  0  0  0  0  0  0  0  0
   -1.9576   -0.0418   -1.6022 H   0  0  0  0  0  0  0  0  0  0  0  0
   -0.2720    2.3260   -0.5991 H   0  0  0  0  0  0  0  0  0  0  0  0
   -0.9120    2.0283   -2.2428 H   0  0  0  0  0  0  0  0  0  0  0  0
   -0.7226   -1.7652    2.6223 H   0  0  0  0  0  0  0  0  0  0  0  0
   -2.2063   -2.8864    3.9244 H   0  0  0  0  0  0  0  0  0  0  0  0
   -3.3573   -1.8346    3.0613 H   0  0  0  0  0  0  0  0  0  0  0  0
   -4.1902   -4.1660    3.1038 H   0  0  0  0  0  0  0  0  0  0  0  0
   -3.7881   -3.7194    1.4128 H   0  0  0  0  0  0  0  0  0  0  0  0
   -2.7445   -5.8057    1.5127 H   0  0  0  0  0  0  0  0  0  0  0  0
   -2.4417   -5.7096    3.2770 H   0  0  0  0  0  0  0  0  0  0  0  0
   -0.4097   -5.5631    1.5368 H   0  0  0  0  0  0  0  0  0  0  0  0
   -0.4051   -4.5782    3.0379 H   0  0  0  0  0  0  0  0  0  0  0  0
   -1.3317   -3.6336    0.2570 H   0  0  0  0  0  0  0  0  0  0  0  0
    0.2388   -3.2358    1.0217 H   0  0  0  0  0  0  0  0  0  0  0  0
  1  2  1  0
  2  3  1  0
  3  4  2  0
  4  5  1  0
  5  6  1  0
  5  7  2  0
  7  8  1  0
  8  9  2  0
  8 10  1  0
 10 11  1  0
 11 12  1  0
 12 13  1  0
 13 14  1  0
 14 15  1  0
 13 16  1  0
 16 17  2  0
 16 18  1  0
 18 19  1  0
 19 20  1  0
 20 21  1  0
 21 22  1  0
 22 23  1  0
  3  9  1  0
 15 10  1  0
 23 18  1  0
  1 24  1  0
  1 25  1  0
  1 26  1  0
  6 27  1  0
  6 28  1  0
  6 29  1  0
  7 30  1  0
 11 31  1  0
 11 32  1  0
 12 33  1  0
 12 34  1  0
 14 35  1  0
 14 36  1  0
 15 37  1  0
 15 38  1  0
 18 39  1  0
 19 40  1  0
 19 41  1  0
 20 42  1  0
 20 43  1  0
 21 44  1  0
 21 45  1  0
 22 46  1  0
 22 47  1  0
 23 48  1  0
 23 49  1  0
M  END
$$$$
