
     RDKit          3D

 40 43  0  0  0  0  0  0  0  0999 V2000
   -0.9953   -3.8762    2.4475 O   0  0  0  0  0  0  0  0  0  0  0  0
    0.4227   -3.3834    2.3771 S   0  0  0  0  0  0  0  0  0  0  0  0
    0.8151   -2.6424    3.6242 O   0  0  0  0  0  0  0  0  0  0  0  0
    1.5454   -4.6899    2.0195 C   0  0  0  0  0  0  0  0  0  0  0  0
    1.8168   -4.5640    0.5171 C   0  0  0  0  0  0  0  0  0  0  0  0
    1.6352   -3.0975    0.0672 C   0  0  0  0  0  0  0  0  0  0  0  0
    0.6909   -2.4389    0.9678 N   0  0  0  0  0  0  0  0  0  0  0  0
    0.1766   -1.1012    0.7742 C   0  0  0  0  0  0  0  0  0  0  0  0
   -0.8448   -0.5945    1.6008 C   0  0  0  0  0  0  0  0  0  0  0  0
   -1.3457    0.6944    1.4044 C   0  0  0  0  0  0  0  0  0  0  0  0
   -0.8392    1.4978    0.3829 C   0  0  0  0  0  0  0  0  0  0  0  0
    0.1780    1.0166   -0.4525 C   0  0  0  0  0  0  0  0  0  0  0  0
    0.6791   -0.2800   -0.2554 C   0  0  0  0  0  0  0  0  0  0  0  0
    0.7117    1.8649   -1.5755 C   0  0  0  0  0  0  0  0  0  0  0  0
    0.3187    1.3016   -2.8652 N   0  0  0  0  0  0  0  0  0  0  0  0
   -1.0346    1.3473   -3.3426 C   0  0  0  0  0  0  0  0  0  0  0  0
   -2.0042    2.0186   -2.6492 N   0  0  0  0  0  0  0  0  0  0  0  0
   -3.3013    2.0660   -3.0912 C   0  0  0  0  0  0  0  0  0  0  0  0
   -3.6627    1.4360   -4.2495 N   0  0  0  0  0  0  0  0  0  0  0  0
   -2.7059    0.7717   -4.9404 C   0  0  0  0  0  0  0  0  0  0  0  0
   -2.8733    0.0910   -6.0863 N   0  0  0  0  0  0  0  0  0  0  0  0
   -1.6190   -0.3772   -6.3304 C   0  0  0  0  0  0  0  0  0  0  0  0
   -0.7086   -0.0144   -5.3917 N   0  0  0  0  0  0  0  0  0  0  0  0
   -1.4203    0.7138   -4.5219 C   0  0  0  0  0  0  0  0  0  0  0  0
    2.4853   -4.5353    2.5910 H   0  0  0  0  0  0  0  0  0  0  0  0
    1.1039   -5.6774    2.2714 H   0  0  0  0  0  0  0  0  0  0  0  0
    2.8383   -4.9264    0.2713 H   0  0  0  0  0  0  0  0  0  0  0  0
    1.0836   -5.1971   -0.0298 H   0  0  0  0  0  0  0  0  0  0  0  0
    2.6128   -2.5705    0.1128 H   0  0  0  0  0  0  0  0  0  0  0  0
    1.2515   -3.0741   -0.9760 H   0  0  0  0  0  0  0  0  0  0  0  0
   -1.2689   -1.1916    2.3949 H   0  0  0  0  0  0  0  0  0  0  0  0
   -2.1336    1.0701    2.0445 H   0  0  0  0  0  0  0  0  0  0  0  0
   -1.2447    2.4920    0.2415 H   0  0  0  0  0  0  0  0  0  0  0  0
    1.4627   -0.6385   -0.9099 H   0  0  0  0  0  0  0  0  0  0  0  0
    1.8211    1.8909   -1.5082 H   0  0  0  0  0  0  0  0  0  0  0  0
    0.3562    2.9157   -1.5005 H   0  0  0  0  0  0  0  0  0  0  0  0
    1.0572    0.8446   -3.4453 H   0  0  0  0  0  0  0  0  0  0  0  0
   -4.0438    2.6047   -2.5188 H   0  0  0  0  0  0  0  0  0  0  0  0
   -1.3722   -0.9839   -7.1919 H   0  0  0  0  0  0  0  0  0  0  0  0
    0.3060   -0.2578   -5.3646 H   0  0  0  0  0  0  0  0  0  0  0  0
  1  2  2  0
  2  3  2  0
  2  4  1  0
  4  5  1  0
  5  6  1  0
  6  7  1  0
  7  8  1  0
  8  9  2  0
  9 10  1  0
 10 11  2  0
 11 12  1  0
 12 13  2  0
 12 14  1  0
 14 15  1  0
 15 16  1  0
 16 17  2  0
 17 18  1  0
 18 19  2  0
 19 20  1  0
 20 21  1  0
 21 22  2  0
 22 23  1  0
 23 24  1  0
  7  2  1  0
  8 13  1  0
 16 24  1  0
 24 20  2  0
  4 25  1  0
  4 26  1  0
  5 27  1  0
  5 28  1  0
  6 29  1  0
  6 30  1  0
  9 31  1  0
 10 32  1  0
 11 33  1  0
 13 34  1  0
 14 35  1  0
 14 36  1  0
 15 37  1  0
 18 38  1  0
 22 39  1  0
 23 40  1  0
M  END
$$$$
