
     RDKit          3D

 43 46  0  0  0  0  0  0  0  0999 V2000
   -2.6326   -2.7144    4.7126 C   0  0  0  0  0  0  0  0  0  0  0  0
   -3.1449   -1.3892    4.1224 C   0  0  0  0  0  0  0  0  0  0  0  0
   -2.1410   -0.2179    4.2084 C   0  0  0  0  0  0  0  0  0  0  0  0
   -0.8814   -0.5498    3.5472 N   0  0  0  0  0  0  0  0  0  0  0  0
   -0.5931   -0.4108    2.2421 C   0  0  0  0  0  0  0  0  0  0  0  0
    0.6928   -0.8866    2.0835 C   0  0  0  0  0  0  0  0  0  0  0  0
    1.1428   -1.2976    3.2873 N   0  0  0  0  0  0  0  0  0  0  0  0
    0.1653   -1.0837    4.1562 N   0  0  0  0  0  0  0  0  0  0  0  0
    1.4826   -0.9526    0.8428 C   0  0  0  0  0  0  0  0  0  0  0  0
    2.6670   -1.3821    0.8942 O   0  0  0  0  0  0  0  0  0  0  0  0
    0.9270   -0.5378   -0.4132 N   0  0  0  0  0  0  0  0  0  0  0  0
    1.7022   -0.6117   -1.6480 C   0  0  2  0  0  0  0  0  0  0  0  0
    2.7234    0.5155   -1.7751 C   0  0  0  0  0  0  0  0  0  0  0  0
    1.4435    0.5464   -2.6051 C   0  0  1  0  0  0  0  0  0  0  0  0
    1.5889    0.2652   -4.0902 C   0  0  0  0  0  0  0  0  0  0  0  0
    0.7856    1.0021   -4.9775 C   0  0  0  0  0  0  0  0  0  0  0  0
    0.8674    0.7916   -6.3570 C   0  0  0  0  0  0  0  0  0  0  0  0
    1.7528   -0.1578   -6.8695 C   0  0  0  0  0  0  0  0  0  0  0  0
    2.5590   -0.8989   -6.0033 C   0  0  0  0  0  0  0  0  0  0  0  0
    3.4196   -1.8200   -6.5030 F   0  0  0  0  0  0  0  0  0  0  0  0
    2.4815   -0.6926   -4.6219 C   0  0  0  0  0  0  0  0  0  0  0  0
   -3.8358   -1.5382    2.7783 C   0  0  0  0  0  0  0  0  0  0  0  0
   -5.0937   -1.1917    3.3090 O   0  0  0  0  0  0  0  0  0  0  0  0
   -4.5414   -1.0206    4.5933 C   0  0  0  0  0  0  0  0  0  0  0  0
   -2.3125   -2.5609    5.7648 H   0  0  0  0  0  0  0  0  0  0  0  0
   -3.4223   -3.4967    4.6942 H   0  0  0  0  0  0  0  0  0  0  0  0
   -1.7690   -3.0870    4.1231 H   0  0  0  0  0  0  0  0  0  0  0  0
   -2.5674    0.7015    3.7486 H   0  0  0  0  0  0  0  0  0  0  0  0
   -1.9430    0.0125    5.2779 H   0  0  0  0  0  0  0  0  0  0  0  0
   -1.2558    0.0017    1.4937 H   0  0  0  0  0  0  0  0  0  0  0  0
   -0.0810   -0.2743   -0.4779 H   0  0  0  0  0  0  0  0  0  0  0  0
    2.0075   -1.6113   -2.0204 H   0  0  0  0  0  0  0  0  0  0  0  0
    3.6553    0.2358   -2.3080 H   0  0  0  0  0  0  0  0  0  0  0  0
    2.7327    1.2388   -0.9316 H   0  0  0  0  0  0  0  0  0  0  0  0
    0.7012    1.3020   -2.2658 H   0  0  0  0  0  0  0  0  0  0  0  0
    0.0914    1.7436   -4.6011 H   0  0  0  0  0  0  0  0  0  0  0  0
    0.2429    1.3658   -7.0292 H   0  0  0  0  0  0  0  0  0  0  0  0
    1.8137   -0.3183   -7.9383 H   0  0  0  0  0  0  0  0  0  0  0  0
    3.1232   -1.2822   -3.9828 H   0  0  0  0  0  0  0  0  0  0  0  0
   -3.8450   -2.5788    2.3843 H   0  0  0  0  0  0  0  0  0  0  0  0
   -3.5182   -0.7961    2.0141 H   0  0  0  0  0  0  0  0  0  0  0  0
   -4.6465    0.0351    4.9294 H   0  0  0  0  0  0  0  0  0  0  0  0
   -4.9882   -1.7403    5.3148 H   0  0  0  0  0  0  0  0  0  0  0  0
  1  2  1  0
  2  3  1  0
  3  4  1  0
  4  5  1  0
  5  6  2  0
  6  7  1  0
  7  8  2  0
  6  9  1  0
  9 10  2  0
  9 11  1  0
 11 12  1  0
 12 13  1  0
 13 14  1  0
 14 15  1  0
 15 16  2  0
 16 17  1  0
 17 18  2  0
 18 19  1  0
 19 20  1  0
 19 21  2  0
  2 22  1  0
 22 23  1  0
 23 24  1  0
 24  2  1  0
  8  4  1  0
 14 12  1  0
 15 21  1  0
  1 25  1  0
  1 26  1  0
  1 27  1  0
  3 28  1  0
  3 29  1  0
  5 30  1  0
 11 31  1  0
 12 32  1  6
 13 33  1  0
 13 34  1  0
 14 35  1  6
 16 36  1  0
 17 37  1  0
 18 38  1  0
 21 39  1  0
 22 40  1  0
 22 41  1  0
 24 42  1  0
 24 43  1  0
M  END
$$$$
