
     RDKit          3D

 46 49  0  0  0  0  0  0  0  0999 V2000
   -3.6132    2.6890    7.2552 C   0  0  0  0  0  0  0  0  0  0  0  0
   -2.9788    1.6902    6.2899 C   0  0  0  0  0  0  0  0  0  0  0  0
   -3.6410    1.7053    4.8999 C   0  0  0  0  0  0  0  0  0  0  0  0
   -2.4875    2.0542    4.0178 C   0  0  0  0  0  0  0  0  0  0  0  0
   -1.4064    2.2724    4.6832 N   0  0  0  0  0  0  0  0  0  0  0  0
   -1.6368    2.0617    6.0167 O   0  0  0  0  0  0  0  0  0  0  0  0
   -2.6083    2.2815    2.5326 C   0  0  0  0  0  0  0  0  0  0  0  0
   -2.9791    1.0483    1.7630 C   0  0  0  0  0  0  0  0  0  0  0  0
   -1.7268    0.9618    0.9909 N   0  0  0  0  0  0  0  0  0  0  0  0
   -1.3358    2.1665    1.7435 C   0  0  0  0  0  0  0  0  0  0  0  0
   -1.1601    0.1110   -0.0035 C   0  0  0  0  0  0  0  0  0  0  0  0
   -1.8195   -0.8792   -0.4187 O   0  0  0  0  0  0  0  0  0  0  0  0
    0.1482    0.3929   -0.5201 N   0  0  0  0  0  0  0  0  0  0  0  0
    0.8366   -0.4509   -1.4522 C   0  0  0  0  0  0  0  0  0  0  0  0
    2.0746   -0.1776   -1.9970 C   0  0  0  0  0  0  0  0  0  0  0  0
    2.3253   -1.2587   -2.8222 C   0  0  0  0  0  0  0  0  0  0  0  0
    3.5495   -1.4416   -3.6363 C   0  0  0  0  0  0  0  0  0  0  0  0
    4.8029   -1.0899   -3.1044 C   0  0  0  0  0  0  0  0  0  0  0  0
    5.9641   -1.2401   -3.8693 C   0  0  0  0  0  0  0  0  0  0  0  0
    5.8841   -1.7340   -5.1739 C   0  0  0  0  0  0  0  0  0  0  0  0
    7.0102   -1.8775   -5.9146 F   0  0  0  0  0  0  0  0  0  0  0  0
    4.6413   -2.0710   -5.7176 C   0  0  0  0  0  0  0  0  0  0  0  0
    3.4779   -1.9203   -4.9566 C   0  0  0  0  0  0  0  0  0  0  0  0
    1.2842   -2.1225   -2.7292 N   0  0  0  0  0  0  0  0  0  0  0  0
    1.1379   -3.4195   -3.3824 C   0  0  0  0  0  0  0  0  0  0  0  0
    0.3718   -1.6311   -1.9051 N   0  0  0  0  0  0  0  0  0  0  0  0
   -4.6883    2.4483    7.4012 H   0  0  0  0  0  0  0  0  0  0  0  0
   -3.0984    2.6372    8.2375 H   0  0  0  0  0  0  0  0  0  0  0  0
   -3.5210    3.7224    6.8568 H   0  0  0  0  0  0  0  0  0  0  0  0
   -3.0021    0.6664    6.7239 H   0  0  0  0  0  0  0  0  0  0  0  0
   -4.4346    2.4785    4.8081 H   0  0  0  0  0  0  0  0  0  0  0  0
   -4.0448    0.7040    4.6388 H   0  0  0  0  0  0  0  0  0  0  0  0
   -3.2188    3.1698    2.2610 H   0  0  0  0  0  0  0  0  0  0  0  0
   -3.1126    0.1377    2.3895 H   0  0  0  0  0  0  0  0  0  0  0  0
   -3.8469    1.2174    1.0875 H   0  0  0  0  0  0  0  0  0  0  0  0
   -1.1921    3.0271    1.0540 H   0  0  0  0  0  0  0  0  0  0  0  0
   -0.4233    1.9680    2.3474 H   0  0  0  0  0  0  0  0  0  0  0  0
    0.6310    1.2603   -0.1938 H   0  0  0  0  0  0  0  0  0  0  0  0
    2.6991    0.6894   -1.8247 H   0  0  0  0  0  0  0  0  0  0  0  0
    4.8838   -0.7104   -2.0930 H   0  0  0  0  0  0  0  0  0  0  0  0
    6.9258   -0.9735   -3.4489 H   0  0  0  0  0  0  0  0  0  0  0  0
    4.5777   -2.4400   -6.7335 H   0  0  0  0  0  0  0  0  0  0  0  0
    2.5245   -2.1509   -5.4111 H   0  0  0  0  0  0  0  0  0  0  0  0
    0.6886   -3.2848   -4.3876 H   0  0  0  0  0  0  0  0  0  0  0  0
    0.4693   -4.0712   -2.7808 H   0  0  0  0  0  0  0  0  0  0  0  0
    2.1234   -3.9241   -3.4704 H   0  0  0  0  0  0  0  0  0  0  0  0
  1  2  1  0
  2  3  1  0
  3  4  1  0
  4  5  2  0
  5  6  1  0
  4  7  1  0
  7  8  1  0
  8  9  1  0
  9 10  1  0
  9 11  1  0
 11 12  2  0
 11 13  1  0
 13 14  1  0
 14 15  1  0
 15 16  2  0
 16 17  1  0
 17 18  2  0
 18 19  1  0
 19 20  2  0
 20 21  1  0
 20 22  1  0
 22 23  2  0
 16 24  1  0
 24 25  1  0
 24 26  1  0
  6  2  1  0
 10  7  1  0
 14 26  2  0
 17 23  1  0
  1 27  1  0
  1 28  1  0
  1 29  1  0
  2 30  1  0
  3 31  1  0
  3 32  1  0
  7 33  1  0
  8 34  1  0
  8 35  1  0
 10 36  1  0
 10 37  1  0
 13 38  1  0
 15 39  1  0
 18 40  1  0
 19 41  1  0
 22 42  1  0
 23 43  1  0
 25 44  1  0
 25 45  1  0
 25 46  1  0
M  END
$$$$
