
     RDKit          3D

 54 58  0  0  0  0  0  0  0  0999 V2000
   -1.9026   -1.5238   -3.8021 O   0  0  0  0  0  0  0  0  0  0  0  0
   -1.4240   -1.3188   -2.6536 C   0  0  0  0  0  0  0  0  0  0  0  0
   -0.6615   -0.0789   -2.4056 C   0  0  0  0  0  0  0  0  0  0  0  0
   -0.8502    0.6522   -1.2042 C   0  0  0  0  0  0  0  0  0  0  0  0
   -0.1335    1.8374   -0.9618 C   0  0  0  0  0  0  0  0  0  0  0  0
    0.7542    2.2780   -1.9463 C   0  0  0  0  0  0  0  0  0  0  0  0
    0.9207    1.5850   -3.1153 C   0  0  0  0  0  0  0  0  0  0  0  0
    0.2288    0.4078   -3.3876 C   0  0  0  0  0  0  0  0  0  0  0  0
    1.8199    2.2103   -3.8921 N   0  0  0  0  0  0  0  0  0  0  0  0
    2.1851    3.2885   -3.1611 C   0  0  0  0  0  0  0  0  0  0  0  0
    3.0327    4.1304   -3.5624 O   0  0  0  0  0  0  0  0  0  0  0  0
    1.5534    3.3712   -1.9603 N   0  0  0  0  0  0  0  0  0  0  0  0
    1.7455    4.4155   -0.9386 C   0  0  0  0  0  0  0  0  0  0  0  0
    0.4413    5.1396   -0.5828 C   0  0  0  0  0  0  0  0  0  0  0  0
    0.3475    5.1478    0.9410 C   0  0  0  0  0  0  0  0  0  0  0  0
    1.7066    4.7052    1.4621 C   0  0  0  0  0  0  0  0  0  0  0  0
    2.3126    3.8522    0.3627 C   0  0  0  0  0  0  0  0  0  0  0  0
   -1.6298   -2.2926   -1.6157 N   0  0  0  0  0  0  0  0  0  0  0  0
   -2.7318   -3.2387   -1.6313 C   0  0  0  0  0  0  0  0  0  0  0  0
   -2.3872   -4.2889   -0.5826 C   0  0  0  0  0  0  0  0  0  0  0  0
   -1.2923   -3.6721    0.2888 C   0  0  0  0  0  0  0  0  0  0  0  0
   -0.6492   -2.5954   -0.5856 C   0  0  0  0  0  0  0  0  0  0  0  0
   -1.8911   -3.0870    1.4488 O   0  0  0  0  0  0  0  0  0  0  0  0
   -1.1911   -2.5791    2.5554 C   0  0  0  0  0  0  0  0  0  0  0  0
   -1.9275   -1.9873    3.5896 C   0  0  0  0  0  0  0  0  0  0  0  0
   -1.2796   -1.4609    4.7111 C   0  0  0  0  0  0  0  0  0  0  0  0
    0.1125   -1.5232    4.8084 C   0  0  0  0  0  0  0  0  0  0  0  0
    0.8585   -2.1134    3.7847 C   0  0  0  0  0  0  0  0  0  0  0  0
    2.2096   -2.1731    3.8801 F   0  0  0  0  0  0  0  0  0  0  0  0
    0.2133   -2.6418    2.6615 C   0  0  0  0  0  0  0  0  0  0  0  0
   -1.5635    0.3123   -0.4636 H   0  0  0  0  0  0  0  0  0  0  0  0
   -0.2813    2.3806   -0.0405 H   0  0  0  0  0  0  0  0  0  0  0  0
    0.3862   -0.1197   -4.3203 H   0  0  0  0  0  0  0  0  0  0  0  0
    2.1610    1.9283   -4.8381 H   0  0  0  0  0  0  0  0  0  0  0  0
    2.4644    5.1788   -1.3148 H   0  0  0  0  0  0  0  0  0  0  0  0
   -0.4523    4.6479   -1.0235 H   0  0  0  0  0  0  0  0  0  0  0  0
    0.4744    6.1841   -0.9642 H   0  0  0  0  0  0  0  0  0  0  0  0
   -0.4314    4.4279    1.2750 H   0  0  0  0  0  0  0  0  0  0  0  0
    0.0860    6.1584    1.3234 H   0  0  0  0  0  0  0  0  0  0  0  0
    2.3473    5.5985    1.6340 H   0  0  0  0  0  0  0  0  0  0  0  0
    1.6116    4.1351    2.4116 H   0  0  0  0  0  0  0  0  0  0  0  0
    3.4226    3.9131    0.3769 H   0  0  0  0  0  0  0  0  0  0  0  0
    2.0175    2.7924    0.5136 H   0  0  0  0  0  0  0  0  0  0  0  0
   -3.6742   -2.7132   -1.3651 H   0  0  0  0  0  0  0  0  0  0  0  0
   -2.8325   -3.7119   -2.6324 H   0  0  0  0  0  0  0  0  0  0  0  0
   -1.9875   -5.1964   -1.0872 H   0  0  0  0  0  0  0  0  0  0  0  0
   -3.2813   -4.5761    0.0129 H   0  0  0  0  0  0  0  0  0  0  0  0
   -0.5608   -4.4552    0.5875 H   0  0  0  0  0  0  0  0  0  0  0  0
    0.2752   -2.9887   -1.0613 H   0  0  0  0  0  0  0  0  0  0  0  0
   -0.3975   -1.6948    0.0083 H   0  0  0  0  0  0  0  0  0  0  0  0
   -3.0067   -1.9329    3.5216 H   0  0  0  0  0  0  0  0  0  0  0  0
   -1.8571   -1.0038    5.5043 H   0  0  0  0  0  0  0  0  0  0  0  0
    0.6120   -1.1143    5.6773 H   0  0  0  0  0  0  0  0  0  0  0  0
    0.8142   -3.0908    1.8832 H   0  0  0  0  0  0  0  0  0  0  0  0
  1  2  2  0
  2  3  1  0
  3  4  2  0
  4  5  1  0
  5  6  2  0
  6  7  1  0
  7  8  2  0
  7  9  1  0
  9 10  1  0
 10 11  2  0
 10 12  1  0
 12 13  1  0
 13 14  1  0
 14 15  1  0
 15 16  1  0
 16 17  1  0
  2 18  1  0
 18 19  1  0
 19 20  1  0
 20 21  1  0
 21 22  1  0
 21 23  1  0
 23 24  1  0
 24 25  2  0
 25 26  1  0
 26 27  2  0
 27 28  1  0
 28 29  1  0
 28 30  2  0
  3  8  1  0
 12  6  1  0
 17 13  1  0
 22 18  1  0
 24 30  1  0
  4 31  1  0
  5 32  1  0
  8 33  1  0
  9 34  1  0
 13 35  1  0
 14 36  1  0
 14 37  1  0
 15 38  1  0
 15 39  1  0
 16 40  1  0
 16 41  1  0
 17 42  1  0
 17 43  1  0
 19 44  1  0
 19 45  1  0
 20 46  1  0
 20 47  1  0
 21 48  1  0
 22 49  1  0
 22 50  1  0
 25 51  1  0
 26 52  1  0
 27 53  1  0
 30 54  1  0
M  END
$$$$
