
     RDKit          3D

 39 41  0  0  0  0  0  0  0  0999 V2000
   -3.1375   -1.4358    0.9421 C   0  0  0  0  0  0  0  0  0  0  0  0
   -3.0872   -1.4128    2.4480 C   0  0  0  0  0  0  0  0  0  0  0  0
   -3.7583   -2.4241    3.1580 C   0  0  0  0  0  0  0  0  0  0  0  0
   -3.7779   -2.4204    4.5537 C   0  0  0  0  0  0  0  0  0  0  0  0
   -3.1264   -1.4100    5.2592 C   0  0  0  0  0  0  0  0  0  0  0  0
   -2.4380   -0.4087    4.5723 C   0  0  0  0  0  0  0  0  0  0  0  0
   -2.3884   -0.4075    3.1670 C   0  0  0  0  0  0  0  0  0  0  0  0
   -1.6142    0.6570    2.4905 C   0  0  0  0  0  0  0  0  0  0  0  0
   -1.7132    1.8447    2.9019 O   0  0  0  0  0  0  0  0  0  0  0  0
   -0.7014    0.3310    1.4309 N   0  0  0  0  0  0  0  0  0  0  0  0
   -0.1791    1.2812    0.4925 C   0  0  0  0  0  0  0  0  0  0  0  0
    0.7826    0.9643   -0.3993 N   0  0  0  0  0  0  0  0  0  0  0  0
    1.0945    2.0091   -1.2166 C   0  0  0  0  0  0  0  0  0  0  0  0
    0.3576    3.1724   -0.9751 C   0  0  0  0  0  0  0  0  0  0  0  0
   -0.7023    2.8686    0.2945 S   0  0  0  0  0  0  0  0  0  0  0  0
    2.1284    1.8935   -2.2783 C   0  0  0  0  0  0  0  0  0  0  0  0
    2.0248    2.6750   -3.4458 C   0  0  0  0  0  0  0  0  0  0  0  0
    2.9773    2.5703   -4.4600 C   0  0  0  0  0  0  0  0  0  0  0  0
    4.0450    1.6856   -4.3275 C   0  0  0  0  0  0  0  0  0  0  0  0
    4.1665    0.9017   -3.1798 C   0  0  0  0  0  0  0  0  0  0  0  0
    3.2152    0.9959   -2.1429 C   0  0  0  0  0  0  0  0  0  0  0  0
    3.3323    0.2315   -0.9688 O   0  0  0  0  0  0  0  0  0  0  0  0
    4.3530   -0.7293   -0.7135 C   0  0  0  0  0  0  0  0  0  0  0  0
    4.1983   -1.2213    0.5679 F   0  0  0  0  0  0  0  0  0  0  0  0
    4.2509   -1.7763   -1.6117 F   0  0  0  0  0  0  0  0  0  0  0  0
   -4.0422   -1.9718    0.5838 H   0  0  0  0  0  0  0  0  0  0  0  0
   -3.1850   -0.4055    0.5313 H   0  0  0  0  0  0  0  0  0  0  0  0
   -2.2423   -1.9567    0.5445 H   0  0  0  0  0  0  0  0  0  0  0  0
   -4.2803   -3.2123    2.6293 H   0  0  0  0  0  0  0  0  0  0  0  0
   -4.3050   -3.1995    5.0891 H   0  0  0  0  0  0  0  0  0  0  0  0
   -3.1480   -1.4065    6.3413 H   0  0  0  0  0  0  0  0  0  0  0  0
   -1.9237    0.3571    5.1405 H   0  0  0  0  0  0  0  0  0  0  0  0
   -0.3784   -0.6586    1.3445 H   0  0  0  0  0  0  0  0  0  0  0  0
    0.4534    4.1162   -1.4943 H   0  0  0  0  0  0  0  0  0  0  0  0
    1.1944    3.3540   -3.5886 H   0  0  0  0  0  0  0  0  0  0  0  0
    2.8836    3.1732   -5.3541 H   0  0  0  0  0  0  0  0  0  0  0  0
    4.7814    1.6063   -5.1170 H   0  0  0  0  0  0  0  0  0  0  0  0
    5.0094    0.2289   -3.1074 H   0  0  0  0  0  0  0  0  0  0  0  0
    5.3544   -0.2564   -0.7933 H   0  0  0  0  0  0  0  0  0  0  0  0
  1  2  1  0
  2  3  2  0
  3  4  1  0
  4  5  2  0
  5  6  1  0
  6  7  2  0
  7  8  1  0
  8  9  2  0
  8 10  1  0
 10 11  1  0
 11 12  2  0
 12 13  1  0
 13 14  2  0
 14 15  1  0
 13 16  1  0
 16 17  2  0
 17 18  1  0
 18 19  2  0
 19 20  1  0
 20 21  2  0
 21 22  1  0
 22 23  1  0
 23 24  1  0
 23 25  1  0
  2  7  1  0
 15 11  1  0
 16 21  1  0
  1 26  1  0
  1 27  1  0
  1 28  1  0
  3 29  1  0
  4 30  1  0
  5 31  1  0
  6 32  1  0
 10 33  1  0
 14 34  1  0
 17 35  1  0
 18 36  1  0
 19 37  1  0
 20 38  1  0
 23 39  1  0
M  END
$$$$
