
     RDKit          3D

 56 57  0  0  0  0  0  0  0  0999 V2000
   -4.3145    2.2610   -3.4245 C   0  0  0  0  0  0  0  0  0  0  0  0
   -3.2920    2.7628   -2.5700 O   0  0  0  0  0  0  0  0  0  0  0  0
   -3.1088    2.3697   -1.2357 C   0  0  0  0  0  0  0  0  0  0  0  0
   -3.9413    1.4249   -0.6048 C   0  0  0  0  0  0  0  0  0  0  0  0
   -3.7143    1.0583    0.7360 C   0  0  0  0  0  0  0  0  0  0  0  0
   -2.6555    1.6446    1.4370 C   0  0  0  0  0  0  0  0  0  0  0  0
   -1.8207    2.5811    0.8147 C   0  0  0  0  0  0  0  0  0  0  0  0
   -2.0539    2.9409   -0.5170 C   0  0  0  0  0  0  0  0  0  0  0  0
   -0.4378    3.2607    1.6696 S   0  0  0  0  0  0  0  0  0  0  0  0
   -0.6938    4.7205    1.9167 O   0  0  0  0  0  0  0  0  0  0  0  0
   -0.2311    2.5696    2.9885 O   0  0  0  0  0  0  0  0  0  0  0  0
    0.9936    3.0805    0.7038 N   0  0  0  0  0  0  0  0  0  0  0  0
    1.2913    1.8894   -0.0493 C   0  0  0  0  0  0  0  0  0  0  0  0
    0.7241    0.6517    0.3050 C   0  0  0  0  0  0  0  0  0  0  0  0
    0.9864   -0.4978   -0.4454 C   0  0  0  0  0  0  0  0  0  0  0  0
    1.8404   -0.4237   -1.5498 C   0  0  0  0  0  0  0  0  0  0  0  0
    2.4308    0.7915   -1.8994 C   0  0  0  0  0  0  0  0  0  0  0  0
    2.1619    1.9581   -1.1564 C   0  0  0  0  0  0  0  0  0  0  0  0
    2.7315    3.1964   -1.4960 O   0  0  0  0  0  0  0  0  0  0  0  0
    3.6187    3.4060   -2.5897 C   0  0  0  0  0  0  0  0  0  0  0  0
    0.2302   -2.0205    0.0124 S   0  0  0  0  0  0  0  0  0  0  0  0
   -1.2572   -1.8052    0.0106 O   0  0  0  0  0  0  0  0  0  0  0  0
    0.5389   -3.0876   -1.0007 O   0  0  0  0  0  0  0  0  0  0  0  0
    0.7054   -2.5529    1.6092 N   0  0  0  0  0  0  0  0  0  0  0  0
    2.1554   -2.7450    1.8652 C   0  0  0  0  0  0  0  0  0  0  0  0
    2.2749   -3.5061    3.2003 C   0  0  0  0  0  0  0  0  0  0  0  0
    2.8314   -3.6008    0.7728 C   0  0  0  0  0  0  0  0  0  0  0  0
    2.8998   -1.3979    2.0127 C   0  0  0  0  0  0  0  0  0  0  0  0
   -4.5108    0.1161    1.4040 O   0  0  0  0  0  0  0  0  0  0  0  0
   -5.6063   -0.5758    0.8138 C   0  0  0  0  0  0  0  0  0  0  0  0
   -4.2225    2.7407   -4.4203 H   0  0  0  0  0  0  0  0  0  0  0  0
   -4.2044    1.1628   -3.5477 H   0  0  0  0  0  0  0  0  0  0  0  0
   -5.3145    2.5009   -3.0053 H   0  0  0  0  0  0  0  0  0  0  0  0
   -4.7567    0.9772   -1.1531 H   0  0  0  0  0  0  0  0  0  0  0  0
   -2.4775    1.3542    2.4645 H   0  0  0  0  0  0  0  0  0  0  0  0
   -1.4047    3.6585   -1.0037 H   0  0  0  0  0  0  0  0  0  0  0  0
    1.5866    3.9313    0.5826 H   0  0  0  0  0  0  0  0  0  0  0  0
    0.0874    0.5673    1.1739 H   0  0  0  0  0  0  0  0  0  0  0  0
    2.0575   -1.3054   -2.1384 H   0  0  0  0  0  0  0  0  0  0  0  0
    3.0912    0.8144   -2.7551 H   0  0  0  0  0  0  0  0  0  0  0  0
    4.5346    2.7912   -2.4619 H   0  0  0  0  0  0  0  0  0  0  0  0
    3.1144    3.1490   -3.5452 H   0  0  0  0  0  0  0  0  0  0  0  0
    3.9107    4.4757   -2.6192 H   0  0  0  0  0  0  0  0  0  0  0  0
    0.3115   -1.8699    2.2974 H   0  0  0  0  0  0  0  0  0  0  0  0
    1.8231   -2.9155    4.0266 H   0  0  0  0  0  0  0  0  0  0  0  0
    1.7408   -4.4791    3.1392 H   0  0  0  0  0  0  0  0  0  0  0  0
    3.3379   -3.7063    3.4576 H   0  0  0  0  0  0  0  0  0  0  0  0
    2.2473   -4.5279    0.5887 H   0  0  0  0  0  0  0  0  0  0  0  0
    3.8589   -3.8909    1.0821 H   0  0  0  0  0  0  0  0  0  0  0  0
    2.9303   -3.0370   -0.1778 H   0  0  0  0  0  0  0  0  0  0  0  0
    3.0659   -0.9115    1.0334 H   0  0  0  0  0  0  0  0  0  0  0  0
    2.3369   -0.7028    2.6715 H   0  0  0  0  0  0  0  0  0  0  0  0
    3.9066   -1.5552    2.4569 H   0  0  0  0  0  0  0  0  0  0  0  0
   -6.3845    0.1470    0.4894 H   0  0  0  0  0  0  0  0  0  0  0  0
   -6.0494   -1.2608    1.5652 H   0  0  0  0  0  0  0  0  0  0  0  0
   -5.2564   -1.1765   -0.0522 H   0  0  0  0  0  0  0  0  0  0  0  0
  1  2  1  0
  2  3  1  0
  3  4  2  0
  4  5  1  0
  5  6  2  0
  6  7  1  0
  7  8  2  0
  7  9  1  0
  9 10  2  0
  9 11  2  0
  9 12  1  0
 12 13  1  0
 13 14  2  0
 14 15  1  0
 15 16  2  0
 16 17  1  0
 17 18  2  0
 18 19  1  0
 19 20  1  0
 15 21  1  0
 21 22  2  0
 21 23  2  0
 21 24  1  0
 24 25  1  0
 25 26  1  0
 25 27  1  0
 25 28  1  0
  5 29  1  0
 29 30  1  0
  8  3  1  0
 13 18  1  0
  1 31  1  0
  1 32  1  0
  1 33  1  0
  4 34  1  0
  6 35  1  0
  8 36  1  0
 12 37  1  0
 14 38  1  0
 16 39  1  0
 17 40  1  0
 20 41  1  0
 20 42  1  0
 20 43  1  0
 24 44  1  0
 26 45  1  0
 26 46  1  0
 26 47  1  0
 27 48  1  0
 27 49  1  0
 27 50  1  0
 28 51  1  0
 28 52  1  0
 28 53  1  0
 30 54  1  0
 30 55  1  0
 30 56  1  0
M  END
$$$$
