
     RDKit          3D

 45 48  0  0  0  0  0  0  0  0999 V2000
   -3.8412   -1.0042    2.1198 C   0  0  0  0  0  0  0  0  0  0  0  0
   -2.9519   -0.5043    0.9734 C   0  0  0  0  0  0  0  0  0  0  0  0
   -2.0093   -1.6305    0.5054 C   0  0  0  0  0  0  0  0  0  0  0  0
   -1.1607   -1.2597   -0.6405 N   0  0  0  0  0  0  0  0  0  0  0  0
   -1.5271   -0.1871   -1.5868 C   0  0  0  0  0  0  0  0  0  0  0  0
   -1.6249    1.2083   -0.9310 C   0  0  0  0  0  0  0  0  0  0  0  0
   -1.1255    1.1852    0.4654 N   0  0  0  0  0  0  0  0  0  0  0  0
   -2.1776    0.7616    1.4193 C   0  0  0  0  0  0  0  0  0  0  0  0
   -0.4961    2.4449    0.9549 C   0  0  0  0  0  0  0  0  0  0  0  0
    0.7129    2.9237    0.1486 C   0  0  0  0  0  0  0  0  0  0  0  0
   -0.0289    4.2153   -0.1822 C   0  0  0  0  0  0  0  0  0  0  0  0
   -1.2368    3.7439    0.6214 C   0  0  0  0  0  0  0  0  0  0  0  0
   -0.1594   -2.2087   -1.0450 C   0  0  0  0  0  0  0  0  0  0  0  0
   -0.4608   -3.4278   -1.1566 O   0  0  0  0  0  0  0  0  0  0  0  0
    1.2174   -1.7747   -1.3258 C   0  0  0  0  0  0  0  0  0  0  0  0
    2.1584   -2.5117   -2.0756 C   0  0  0  0  0  0  0  0  0  0  0  0
    3.2668   -1.7075   -2.0205 C   0  0  0  0  0  0  0  0  0  0  0  0
    4.4989   -1.7217   -2.4495 O   0  0  0  0  0  0  0  0  0  0  0  0
    5.0384   -0.5937   -1.9882 C   0  0  0  0  0  0  0  0  0  0  0  0
    6.8455   -0.0799   -2.3096 Br  0  0  0  0  0  0  0  0  0  0  0  0
    4.1132    0.1571   -1.2388 C   0  0  0  0  0  0  0  0  0  0  0  0
    2.9993   -0.6316   -1.3176 C   0  0  0  0  0  0  0  0  0  0  0  0
    1.7485   -0.6118   -0.8492 N   0  0  0  0  0  0  0  0  0  0  0  0
   -3.2248   -1.3152    2.9907 H   0  0  0  0  0  0  0  0  0  0  0  0
   -4.5376   -0.2009    2.4426 H   0  0  0  0  0  0  0  0  0  0  0  0
   -4.4486   -1.8720    1.7845 H   0  0  0  0  0  0  0  0  0  0  0  0
   -3.6406   -0.2446    0.1406 H   0  0  0  0  0  0  0  0  0  0  0  0
   -1.3549   -1.9248    1.3561 H   0  0  0  0  0  0  0  0  0  0  0  0
   -2.6179   -2.5181    0.2243 H   0  0  0  0  0  0  0  0  0  0  0  0
   -0.7794   -0.1340   -2.4097 H   0  0  0  0  0  0  0  0  0  0  0  0
   -2.4962   -0.4439   -2.0665 H   0  0  0  0  0  0  0  0  0  0  0  0
   -1.0570    1.9178   -1.5650 H   0  0  0  0  0  0  0  0  0  0  0  0
   -2.6783    1.5663   -0.9706 H   0  0  0  0  0  0  0  0  0  0  0  0
   -2.9101    1.5869    1.5721 H   0  0  0  0  0  0  0  0  0  0  0  0
   -1.6991    0.5507    2.4020 H   0  0  0  0  0  0  0  0  0  0  0  0
   -0.2335    2.3851    2.0365 H   0  0  0  0  0  0  0  0  0  0  0  0
    0.9572    2.3273   -0.7540 H   0  0  0  0  0  0  0  0  0  0  0  0
    1.6007    3.1073    0.7927 H   0  0  0  0  0  0  0  0  0  0  0  0
   -0.2510    4.3140   -1.2671 H   0  0  0  0  0  0  0  0  0  0  0  0
    0.4559    5.1120    0.2621 H   0  0  0  0  0  0  0  0  0  0  0  0
   -2.1476    3.6297   -0.0017 H   0  0  0  0  0  0  0  0  0  0  0  0
   -1.4074    4.3698    1.5243 H   0  0  0  0  0  0  0  0  0  0  0  0
    2.0421   -3.4701   -2.5637 H   0  0  0  0  0  0  0  0  0  0  0  0
    4.2468    1.1035   -0.7323 H   0  0  0  0  0  0  0  0  0  0  0  0
    1.3063    0.0952   -0.2250 H   0  0  0  0  0  0  0  0  0  0  0  0
  1  2  1  0
  2  3  1  0
  3  4  1  0
  4  5  1  0
  5  6  1  0
  6  7  1  0
  7  8  1  0
  7  9  1  0
  9 10  1  0
 10 11  1  0
 11 12  1  0
  4 13  1  0
 13 14  2  0
 13 15  1  0
 15 16  2  0
 16 17  1  0
 17 18  1  0
 18 19  1  0
 19 20  1  0
 19 21  2  0
 21 22  1  0
 22 23  1  0
  8  2  1  0
 12  9  1  0
 23 15  1  0
 17 22  2  0
  1 24  1  0
  1 25  1  0
  1 26  1  0
  2 27  1  0
  3 28  1  0
  3 29  1  0
  5 30  1  0
  5 31  1  0
  6 32  1  0
  6 33  1  0
  8 34  1  0
  8 35  1  0
  9 36  1  0
 10 37  1  0
 10 38  1  0
 11 39  1  0
 11 40  1  0
 12 41  1  0
 12 42  1  0
 16 43  1  0
 21 44  1  0
 23 45  1  0
M  END
$$$$
