
     RDKit          3D

 52 55  0  0  0  0  0  0  0  0999 V2000
   -1.5792   -0.7866    3.8335 C   0  0  0  0  0  0  0  0  0  0  0  0
   -1.0567   -0.2904    2.4646 C   0  0  0  0  0  0  0  0  0  0  0  0
   -1.6538    1.0998    2.1168 C   0  0  0  0  0  0  0  0  0  0  0  0
   -2.7356    1.0294    1.0233 C   0  0  0  0  0  0  0  0  0  0  0  0
   -3.6060   -0.2223    1.1772 C   0  0  0  0  0  0  0  0  0  0  0  0
   -2.7602   -1.5146    1.1546 C   0  0  0  0  0  0  0  0  0  0  0  0
   -1.3204   -1.2355    1.3477 N   0  0  0  0  0  0  0  0  0  0  0  0
   -0.4955   -2.4633    1.3567 C   0  0  0  0  0  0  0  0  0  0  0  0
    0.8875   -2.2169    0.7216 C   0  0  0  0  0  0  0  0  0  0  0  0
    0.9066   -2.3020   -0.8294 C   0  0  0  0  0  0  0  0  0  0  0  0
    0.0353   -1.2279   -1.5147 C   0  0  0  0  0  0  0  0  0  0  0  0
    0.5942    0.1798   -1.2741 C   0  0  0  0  0  0  0  0  0  0  0  0
    2.0541    0.2152   -1.4450 N   0  0  0  0  0  0  0  0  0  0  0  0
    2.7463   -0.9256   -2.0559 C   0  0  0  0  0  0  0  0  0  0  0  0
    2.3686   -2.2491   -1.3628 C   0  0  0  0  0  0  0  0  0  0  0  0
    2.7258    1.4822   -1.3821 C   0  0  0  0  0  0  0  0  0  0  0  0
    3.4005    1.9638   -2.4703 N   0  0  0  0  0  0  0  0  0  0  0  0
    4.0428    3.1754   -2.4396 C   0  0  0  0  0  0  0  0  0  0  0  0
    4.0318    3.9385   -1.3055 N   0  0  0  0  0  0  0  0  0  0  0  0
    3.3672    3.4625   -0.2261 C   0  0  0  0  0  0  0  0  0  0  0  0
    3.2836    4.0288    0.9845 N   0  0  0  0  0  0  0  0  0  0  0  0
    2.6020    3.2051    1.7742 N   0  0  0  0  0  0  0  0  0  0  0  0
    2.2486    2.1103    1.0538 C   0  0  0  0  0  0  0  0  0  0  0  0
    2.7265    2.2670   -0.2315 C   0  0  0  0  0  0  0  0  0  0  0  0
   -1.1415   -1.7638    4.1134 H   0  0  0  0  0  0  0  0  0  0  0  0
   -2.6840   -0.8725    3.8478 H   0  0  0  0  0  0  0  0  0  0  0  0
   -1.2861   -0.0641    4.6248 H   0  0  0  0  0  0  0  0  0  0  0  0
    0.0395   -0.1553    2.5811 H   0  0  0  0  0  0  0  0  0  0  0  0
   -0.8432    1.7697    1.7558 H   0  0  0  0  0  0  0  0  0  0  0  0
   -2.0834    1.5859    3.0206 H   0  0  0  0  0  0  0  0  0  0  0  0
   -3.3740    1.9379    1.0709 H   0  0  0  0  0  0  0  0  0  0  0  0
   -2.2499    1.0101    0.0227 H   0  0  0  0  0  0  0  0  0  0  0  0
   -4.3560   -0.2502    0.3571 H   0  0  0  0  0  0  0  0  0  0  0  0
   -4.1684   -0.1564    2.1336 H   0  0  0  0  0  0  0  0  0  0  0  0
   -2.9033   -2.0038    0.1664 H   0  0  0  0  0  0  0  0  0  0  0  0
   -3.1302   -2.2241    1.9277 H   0  0  0  0  0  0  0  0  0  0  0  0
   -0.9955   -3.2871    0.7993 H   0  0  0  0  0  0  0  0  0  0  0  0
   -0.3536   -2.8414    2.3885 H   0  0  0  0  0  0  0  0  0  0  0  0
    1.3188   -1.2537    1.0616 H   0  0  0  0  0  0  0  0  0  0  0  0
    1.5608   -3.0115    1.1124 H   0  0  0  0  0  0  0  0  0  0  0  0
    0.4869   -3.2947   -1.1077 H   0  0  0  0  0  0  0  0  0  0  0  0
    0.0212   -1.4257   -2.6092 H   0  0  0  0  0  0  0  0  0  0  0  0
   -1.0185   -1.2842   -1.1817 H   0  0  0  0  0  0  0  0  0  0  0  0
    0.1175    0.8876   -1.9864 H   0  0  0  0  0  0  0  0  0  0  0  0
    0.3263    0.5032   -0.2497 H   0  0  0  0  0  0  0  0  0  0  0  0
    2.4714   -0.9770   -3.1321 H   0  0  0  0  0  0  0  0  0  0  0  0
    3.8493   -0.7907   -1.9969 H   0  0  0  0  0  0  0  0  0  0  0  0
    2.5168   -3.0724   -2.0958 H   0  0  0  0  0  0  0  0  0  0  0  0
    3.0964   -2.4368   -0.5428 H   0  0  0  0  0  0  0  0  0  0  0  0
    4.5657    3.5276   -3.3181 H   0  0  0  0  0  0  0  0  0  0  0  0
    3.6916    4.9420    1.2833 H   0  0  0  0  0  0  0  0  0  0  0  0
    1.7179    1.2607    1.4563 H   0  0  0  0  0  0  0  0  0  0  0  0
  1  2  1  0
  2  3  1  0
  3  4  1  0
  4  5  1  0
  5  6  1  0
  6  7  1  0
  7  8  1  0
  8  9  1  0
  9 10  1  0
 10 11  1  0
 11 12  1  0
 12 13  1  0
 13 14  1  0
 14 15  1  0
 13 16  1  0
 16 17  2  0
 17 18  1  0
 18 19  2  0
 19 20  1  0
 20 21  1  0
 21 22  1  0
 22 23  2  0
 23 24  1  0
  7  2  1  0
 15 10  1  0
 16 24  1  0
 24 20  2  0
  1 25  1  0
  1 26  1  0
  1 27  1  0
  2 28  1  0
  3 29  1  0
  3 30  1  0
  4 31  1  0
  4 32  1  0
  5 33  1  0
  5 34  1  0
  6 35  1  0
  6 36  1  0
  8 37  1  0
  8 38  1  0
  9 39  1  0
  9 40  1  0
 10 41  1  0
 11 42  1  0
 11 43  1  0
 12 44  1  0
 12 45  1  0
 14 46  1  0
 14 47  1  0
 15 48  1  0
 15 49  1  0
 18 50  1  0
 21 51  1  0
 23 52  1  0
M  END
$$$$
