
     RDKit          3D

 55 60  0  0  0  0  0  0  0  0999 V2000
   -6.5280    4.3091   -0.3034 C   0  0  0  0  0  0  0  0  0  0  0  0
   -6.8138    3.0898    0.5127 C   0  0  0  0  0  0  0  0  0  0  0  0
   -8.0232    2.7562    1.1191 C   0  0  0  0  0  0  0  0  0  0  0  0
   -7.9388    1.5384    1.7050 N   0  0  0  0  0  0  0  0  0  0  0  0
   -6.6912    1.1065    1.4604 C   0  0  0  0  0  0  0  0  0  0  0  0
   -6.1715   -0.0859    1.8359 N   0  0  0  0  0  0  0  0  0  0  0  0
   -4.8869   -0.3914    1.4854 C   0  0  0  0  0  0  0  0  0  0  0  0
   -4.0958    0.5222    0.7348 C   0  0  0  0  0  0  0  0  0  0  0  0
   -4.6684    1.7560    0.3428 C   0  0  0  0  0  0  0  0  0  0  0  0
   -5.9769    2.0158    0.7348 C   0  0  0  0  0  0  0  0  0  0  0  0
   -2.7091    0.1596    0.3526 C   0  0  0  0  0  0  0  0  0  0  0  0
   -2.3682   -1.0546    0.3475 O   0  0  0  0  0  0  0  0  0  0  0  0
   -1.7449    1.1632   -0.0023 N   0  0  0  0  0  0  0  0  0  0  0  0
   -0.4358    0.7906   -0.5291 C   0  0  1  0  0  0  0  0  0  0  0  0
    0.6655    1.7947   -0.2106 C   0  0  2  0  0  0  0  0  0  0  0  0
    1.9042    1.7137   -1.0911 C   0  0  0  0  0  0  0  0  0  0  0  0
    2.5061    0.4161   -0.8292 N   0  0  0  0  0  0  0  0  0  0  0  0
    1.7693   -0.3633    0.1557 C   0  0  0  0  0  0  0  0  0  0  0  0
    0.5769    0.4868    0.5658 C   0  0  2  0  0  0  0  0  0  0  0  0
    3.5642   -0.1246   -1.6408 C   0  0  0  0  0  0  0  0  0  0  0  0
    3.8027    0.3808   -2.7724 O   0  0  0  0  0  0  0  0  0  0  0  0
    4.3685   -1.2764   -1.1899 C   0  0  0  0  0  0  0  0  0  0  0  0
    4.6433   -2.3389   -2.0880 C   0  0  0  0  0  0  0  0  0  0  0  0
    5.4090   -3.4439   -1.6775 C   0  0  0  0  0  0  0  0  0  0  0  0
    5.8976   -3.4492   -0.3746 C   0  0  0  0  0  0  0  0  0  0  0  0
    6.6360   -4.4074    0.2159 N   0  0  0  0  0  0  0  0  0  0  0  0
    6.8323   -3.9071    1.4626 C   0  0  0  0  0  0  0  0  0  0  0  0
    7.5621   -4.6156    2.4657 N   0  0  0  0  0  0  0  0  0  0  0  0
    6.2592   -2.6921    1.6642 N   0  0  0  0  0  0  0  0  0  0  0  0
    6.2497   -1.9124    2.9017 C   0  0  0  0  0  0  0  0  0  0  0  0
    5.6593   -2.4197    0.4908 C   0  0  0  0  0  0  0  0  0  0  0  0
    4.8979   -1.3090    0.1200 C   0  0  0  0  0  0  0  0  0  0  0  0
   -6.5865    4.0531   -1.3827 H   0  0  0  0  0  0  0  0  0  0  0  0
   -5.5118    4.6915   -0.0711 H   0  0  0  0  0  0  0  0  0  0  0  0
   -7.2683    5.1055   -0.0770 H   0  0  0  0  0  0  0  0  0  0  0  0
   -8.9178    3.3647    1.1187 H   0  0  0  0  0  0  0  0  0  0  0  0
   -8.6932    1.0339    2.2216 H   0  0  0  0  0  0  0  0  0  0  0  0
   -4.4774   -1.3444    1.7946 H   0  0  0  0  0  0  0  0  0  0  0  0
   -4.1348    2.4738   -0.2636 H   0  0  0  0  0  0  0  0  0  0  0  0
   -1.9590    2.1766    0.1396 H   0  0  0  0  0  0  0  0  0  0  0  0
   -0.3818    0.2183   -1.4808 H   0  0  0  0  0  0  0  0  0  0  0  0
    0.4383    2.6941    0.4016 H   0  0  0  0  0  0  0  0  0  0  0  0
    1.6172    1.8065   -2.1602 H   0  0  0  0  0  0  0  0  0  0  0  0
    2.6175    2.5195   -0.8191 H   0  0  0  0  0  0  0  0  0  0  0  0
    1.4246   -1.3235   -0.2856 H   0  0  0  0  0  0  0  0  0  0  0  0
    2.3987   -0.5581    1.0471 H   0  0  0  0  0  0  0  0  0  0  0  0
    0.2853    0.6147    1.6310 H   0  0  0  0  0  0  0  0  0  0  0  0
    4.2510   -2.3163   -3.0974 H   0  0  0  0  0  0  0  0  0  0  0  0
    5.6100   -4.2645   -2.3539 H   0  0  0  0  0  0  0  0  0  0  0  0
    7.9628   -5.5547    2.2508 H   0  0  0  0  0  0  0  0  0  0  0  0
    7.7037   -4.2130    3.4171 H   0  0  0  0  0  0  0  0  0  0  0  0
    7.2869   -1.7979    3.2799 H   0  0  0  0  0  0  0  0  0  0  0  0
    5.6360   -2.4341    3.6648 H   0  0  0  0  0  0  0  0  0  0  0  0
    5.8335   -0.8983    2.7378 H   0  0  0  0  0  0  0  0  0  0  0  0
    4.7354   -0.4876    0.8033 H   0  0  0  0  0  0  0  0  0  0  0  0
  1  2  1  0
  2  3  2  0
  3  4  1  0
  4  5  1  0
  5  6  2  0
  6  7  1  0
  7  8  2  0
  8  9  1  0
  9 10  2  0
  8 11  1  0
 11 12  2  0
 11 13  1  0
 13 14  1  0
 14 15  1  0
 15 16  1  0
 16 17  1  0
 17 18  1  0
 18 19  1  0
 17 20  1  0
 20 21  2  0
 20 22  1  0
 22 23  2  0
 23 24  1  0
 24 25  2  0
 25 26  1  0
 26 27  2  0
 27 28  1  0
 27 29  1  0
 29 30  1  0
 29 31  1  0
 31 32  2  0
 10  2  1  0
  5 10  1  0
 19 14  1  0
 19 15  1  0
 22 32  1  0
 25 31  1  0
  1 33  1  0
  1 34  1  0
  1 35  1  0
  3 36  1  0
  4 37  1  0
  7 38  1  0
  9 39  1  0
 13 40  1  0
 14 41  1  6
 15 42  1  1
 16 43  1  0
 16 44  1  0
 18 45  1  0
 18 46  1  0
 19 47  1  1
 23 48  1  0
 24 49  1  0
 28 50  1  0
 28 51  1  0
 30 52  1  0
 30 53  1  0
 30 54  1  0
 32 55  1  0
M  END
$$$$
