
     RDKit          3D

 42 45  0  0  0  0  0  0  0  0999 V2000
   -1.2181    1.2499   -1.8967 O   0  0  0  0  0  0  0  0  0  0  0  0
   -0.7978    1.4019   -0.7192 C   0  0  0  0  0  0  0  0  0  0  0  0
    0.4705    0.8541   -0.3241 N   0  0  0  0  0  0  0  0  0  0  0  0
    1.1812   -0.1601   -1.0569 C   0  0  0  0  0  0  0  0  0  0  0  0
    2.5765   -0.2270   -0.9660 C   0  0  0  0  0  0  0  0  0  0  0  0
    3.2826   -1.2176   -1.6505 C   0  0  0  0  0  0  0  0  0  0  0  0
    2.5818   -2.1604   -2.4221 C   0  0  0  0  0  0  0  0  0  0  0  0
    1.2228   -2.0902   -2.4761 N   0  0  0  0  0  0  0  0  0  0  0  0
    0.5152   -1.1322   -1.8213 C   0  0  0  0  0  0  0  0  0  0  0  0
    3.2577   -3.2035   -3.1479 N   0  0  0  0  0  0  0  0  0  0  0  0
    4.5868   -3.4267   -3.2319 C   0  0  0  0  0  0  0  0  0  0  0  0
    4.7952   -4.5286   -4.0323 C   0  0  0  0  0  0  0  0  0  0  0  0
    3.5315   -4.9345   -4.4089 C   0  0  0  0  0  0  0  0  0  0  0  0
    2.6141   -4.1154   -3.8608 N   0  0  0  0  0  0  0  0  0  0  0  0
   -1.5622    2.2910    0.2186 C   0  0  0  0  0  0  0  0  0  0  0  0
   -1.6486    1.8055    1.6673 C   0  0  0  0  0  0  0  0  0  0  0  0
   -2.9022    1.8176    0.7983 C   0  0  0  0  0  0  0  0  0  0  0  0
   -3.5579    0.4475    0.4553 C   0  0  0  0  0  0  0  0  0  0  0  0
   -2.7450   -0.8463    0.5887 C   0  0  0  0  0  0  0  0  0  0  0  0
   -3.4010   -1.8156   -0.3765 C   0  0  0  0  0  0  0  0  0  0  0  0
   -3.9127   -0.9590   -1.5244 C   0  0  0  0  0  0  0  0  0  0  0  0
   -4.1781    0.4290   -0.9458 C   0  0  0  0  0  0  0  0  0  0  0  0
    0.9395    1.2741    0.5104 H   0  0  0  0  0  0  0  0  0  0  0  0
    3.1188    0.4963   -0.3699 H   0  0  0  0  0  0  0  0  0  0  0  0
    4.3593   -1.2384   -1.5674 H   0  0  0  0  0  0  0  0  0  0  0  0
   -0.5628   -1.1521   -1.8828 H   0  0  0  0  0  0  0  0  0  0  0  0
    5.3614   -2.8421   -2.7565 H   0  0  0  0  0  0  0  0  0  0  0  0
    5.7411   -4.9762   -4.3059 H   0  0  0  0  0  0  0  0  0  0  0  0
    3.2947   -5.7765   -5.0452 H   0  0  0  0  0  0  0  0  0  0  0  0
   -1.4401    3.3901    0.1172 H   0  0  0  0  0  0  0  0  0  0  0  0
   -1.6085    2.6269    2.4135 H   0  0  0  0  0  0  0  0  0  0  0  0
   -1.1783    0.8249    1.8797 H   0  0  0  0  0  0  0  0  0  0  0  0
   -3.5977    2.6509    1.0365 H   0  0  0  0  0  0  0  0  0  0  0  0
   -4.4006    0.3424    1.1764 H   0  0  0  0  0  0  0  0  0  0  0  0
   -2.7770   -1.2386    1.6287 H   0  0  0  0  0  0  0  0  0  0  0  0
   -1.6894   -0.7293    0.2911 H   0  0  0  0  0  0  0  0  0  0  0  0
   -4.2581   -2.3175    0.1250 H   0  0  0  0  0  0  0  0  0  0  0  0
   -2.6824   -2.5855   -0.7326 H   0  0  0  0  0  0  0  0  0  0  0  0
   -4.8343   -1.3962   -1.9662 H   0  0  0  0  0  0  0  0  0  0  0  0
   -3.1319   -0.8926   -2.3137 H   0  0  0  0  0  0  0  0  0  0  0  0
   -5.2737    0.6111   -0.8800 H   0  0  0  0  0  0  0  0  0  0  0  0
   -3.7457    1.2093   -1.6072 H   0  0  0  0  0  0  0  0  0  0  0  0
  1  2  2  0
  2  3  1  0
  3  4  1  0
  4  5  2  0
  5  6  1  0
  6  7  2  0
  7  8  1  0
  8  9  2  0
  7 10  1  0
 10 11  1  0
 11 12  2  0
 12 13  1  0
 13 14  2  0
  2 15  1  0
 15 16  1  0
 16 17  1  0
 17 18  1  0
 18 19  1  0
 19 20  1  0
 20 21  1  0
 21 22  1  0
  4  9  1  0
 14 10  1  0
 17 15  1  0
 22 18  1  0
  3 23  1  0
  5 24  1  0
  6 25  1  0
  9 26  1  0
 11 27  1  0
 12 28  1  0
 13 29  1  0
 15 30  1  0
 16 31  1  0
 16 32  1  0
 17 33  1  0
 18 34  1  0
 19 35  1  0
 19 36  1  0
 20 37  1  0
 20 38  1  0
 21 39  1  0
 21 40  1  0
 22 41  1  0
 22 42  1  0
M  END
$$$$
