
     RDKit          3D

 40 42  0  0  0  0  0  0  0  0999 V2000
   -5.1117   -0.0668    2.1175 C   0  0  0  0  0  0  0  0  0  0  0  0
   -3.7155   -0.1739    1.8670 O   0  0  0  0  0  0  0  0  0  0  0  0
   -3.0310    0.6987    1.0131 C   0  0  0  0  0  0  0  0  0  0  0  0
   -3.6627    1.6148    0.4195 O   0  0  0  0  0  0  0  0  0  0  0  0
   -1.5730    0.5101    0.7913 C   0  0  0  0  0  0  0  0  0  0  0  0
   -1.0234   -0.7574    1.0576 C   0  0  0  0  0  0  0  0  0  0  0  0
    0.3315   -1.0116    0.8476 C   0  0  0  0  0  0  0  0  0  0  0  0
    1.1758   -0.0009    0.3780 C   0  0  0  0  0  0  0  0  0  0  0  0
    0.6459    1.2661    0.1037 C   0  0  0  0  0  0  0  0  0  0  0  0
   -0.7158    1.5443    0.3217 C   0  0  0  0  0  0  0  0  0  0  0  0
   -1.2125    2.9406    0.0470 C   0  0  0  0  0  0  0  0  0  0  0  0
    2.6228   -0.2951    0.0934 C   0  0  0  0  0  0  0  0  0  0  0  0
    2.7738   -0.7301   -1.2899 N   0  0  0  0  0  0  0  0  0  0  0  0
    2.5693   -1.9693   -1.7663 C   0  0  0  0  0  0  0  0  0  0  0  0
    2.7164   -1.8776   -3.1322 C   0  0  0  0  0  0  0  0  0  0  0  0
    2.4752   -2.9658   -4.1269 C   0  0  0  0  0  0  0  0  0  0  0  0
    1.0492   -3.0600   -4.4183 N   0  0  0  0  0  0  0  0  0  0  0  0
    0.1421   -3.7580   -3.7103 C   0  0  0  0  0  0  0  0  0  0  0  0
   -1.1015   -3.5289   -4.2572 C   0  0  0  0  0  0  0  0  0  0  0  0
   -0.8700   -2.6589   -5.3060 C   0  0  0  0  0  0  0  0  0  0  0  0
    0.4461   -2.3804   -5.3804 N   0  0  0  0  0  0  0  0  0  0  0  0
    2.9734   -0.5927   -3.4505 N   0  0  0  0  0  0  0  0  0  0  0  0
    3.0030    0.0822   -2.3098 N   0  0  0  0  0  0  0  0  0  0  0  0
   -5.6783   -0.1885    1.1700 H   0  0  0  0  0  0  0  0  0  0  0  0
   -5.3423    0.9213    2.5689 H   0  0  0  0  0  0  0  0  0  0  0  0
   -5.4174   -0.8653    2.8242 H   0  0  0  0  0  0  0  0  0  0  0  0
   -1.6489   -1.5679    1.4111 H   0  0  0  0  0  0  0  0  0  0  0  0
    0.7208   -2.0034    1.0426 H   0  0  0  0  0  0  0  0  0  0  0  0
    1.3018    2.0398   -0.2783 H   0  0  0  0  0  0  0  0  0  0  0  0
   -0.3733    3.6492   -0.1197 H   0  0  0  0  0  0  0  0  0  0  0  0
   -1.8468    2.9414   -0.8639 H   0  0  0  0  0  0  0  0  0  0  0  0
   -1.7925    3.3182    0.9151 H   0  0  0  0  0  0  0  0  0  0  0  0
    3.0008   -1.0853    0.7788 H   0  0  0  0  0  0  0  0  0  0  0  0
    3.2422    0.6114    0.2696 H   0  0  0  0  0  0  0  0  0  0  0  0
    2.2997   -2.8389   -1.1805 H   0  0  0  0  0  0  0  0  0  0  0  0
    2.8451   -3.9332   -3.7228 H   0  0  0  0  0  0  0  0  0  0  0  0
    3.0361   -2.7484   -5.0613 H   0  0  0  0  0  0  0  0  0  0  0  0
    0.3655   -4.3770   -2.8508 H   0  0  0  0  0  0  0  0  0  0  0  0
   -2.0508   -3.9312   -3.9302 H   0  0  0  0  0  0  0  0  0  0  0  0
   -1.6184   -2.2461   -5.9687 H   0  0  0  0  0  0  0  0  0  0  0  0
  1  2  1  0
  2  3  1  0
  3  4  2  0
  3  5  1  0
  5  6  2  0
  6  7  1  0
  7  8  2  0
  8  9  1  0
  9 10  2  0
 10 11  1  0
  8 12  1  0
 12 13  1  0
 13 14  1  0
 14 15  2  0
 15 16  1  0
 16 17  1  0
 17 18  1  0
 18 19  2  0
 19 20  1  0
 20 21  2  0
 15 22  1  0
 22 23  2  0
  5 10  1  0
 23 13  1  0
 21 17  1  0
  1 24  1  0
  1 25  1  0
  1 26  1  0
  6 27  1  0
  7 28  1  0
  9 29  1  0
 11 30  1  0
 11 31  1  0
 11 32  1  0
 12 33  1  0
 12 34  1  0
 14 35  1  0
 16 36  1  0
 16 37  1  0
 18 38  1  0
 19 39  1  0
 20 40  1  0
M  END
$$$$
