
     RDKit          3D

 40 42  0  0  0  0  0  0  0  0999 V2000
    1.2527    3.3965    1.4606 O   0  0  0  0  0  0  0  0  0  0  0  0
    2.4588    3.0323    1.4625 C   0  0  0  0  0  0  0  0  0  0  0  0
    3.5422    3.7801    2.1648 C   0  0  0  0  0  0  0  0  0  0  0  0
    4.8075    2.9451    1.8900 C   0  0  0  0  0  0  0  0  0  0  0  0
    4.3193    1.8196    1.0400 C   0  0  0  0  0  0  0  0  0  0  0  0
    5.0837    0.9591    0.5287 O   0  0  0  0  0  0  0  0  0  0  0  0
    2.9173    1.8573    0.8126 N   0  0  0  0  0  0  0  0  0  0  0  0
    2.1301    0.9779   -0.0110 C   0  0  0  0  0  0  0  0  0  0  0  0
    2.4759   -0.3738   -0.1700 C   0  0  0  0  0  0  0  0  0  0  0  0
    1.6824   -1.1976   -0.9701 C   0  0  0  0  0  0  0  0  0  0  0  0
    0.5514   -0.6772   -1.6055 C   0  0  0  0  0  0  0  0  0  0  0  0
    0.2255    0.6695   -1.4100 C   0  0  0  0  0  0  0  0  0  0  0  0
    1.0118    1.4540   -0.6265 N   0  0  0  0  0  0  0  0  0  0  0  0
   -0.4693   -1.7201   -2.5931 S   0  0  0  0  0  0  0  0  0  0  0  0
    0.4047   -2.5963   -3.4458 O   0  0  0  0  0  0  0  0  0  0  0  0
   -1.3342   -0.8874   -3.4985 O   0  0  0  0  0  0  0  0  0  0  0  0
   -1.4709   -2.7197   -1.5850 N   0  0  0  0  0  0  0  0  0  0  0  0
   -2.2924   -1.8785   -0.7103 C   0  0  0  0  0  0  0  0  0  0  0  0
   -3.2830   -2.7477    0.0819 C   0  0  0  0  0  0  0  0  0  0  0  0
   -4.2935   -3.4450   -0.7854 C   0  0  0  0  0  0  0  0  0  0  0  0
   -5.5021   -3.5493    0.1256 C   0  0  0  0  0  0  0  0  0  0  0  0
   -5.4011   -2.5947    1.1599 O   0  0  0  0  0  0  0  0  0  0  0  0
   -4.1644   -1.9356    1.0152 C   0  0  0  0  0  0  0  0  0  0  0  0
    3.6396    4.8020    1.7395 H   0  0  0  0  0  0  0  0  0  0  0  0
    3.3290    3.8326    3.2539 H   0  0  0  0  0  0  0  0  0  0  0  0
    5.2380    2.5511    2.8354 H   0  0  0  0  0  0  0  0  0  0  0  0
    5.5653    3.5424    1.3390 H   0  0  0  0  0  0  0  0  0  0  0  0
    3.3295   -0.7988    0.3391 H   0  0  0  0  0  0  0  0  0  0  0  0
    1.9429   -2.2422   -1.0852 H   0  0  0  0  0  0  0  0  0  0  0  0
   -0.6549    1.0958   -1.8719 H   0  0  0  0  0  0  0  0  0  0  0  0
   -0.8272   -3.2846   -0.9841 H   0  0  0  0  0  0  0  0  0  0  0  0
   -2.8544   -1.1320   -1.3152 H   0  0  0  0  0  0  0  0  0  0  0  0
   -1.6442   -1.3300    0.0095 H   0  0  0  0  0  0  0  0  0  0  0  0
   -2.7254   -3.5045    0.6800 H   0  0  0  0  0  0  0  0  0  0  0  0
   -4.5528   -2.8315   -1.6775 H   0  0  0  0  0  0  0  0  0  0  0  0
   -3.9346   -4.4460   -1.1102 H   0  0  0  0  0  0  0  0  0  0  0  0
   -6.4378   -3.3804   -0.4491 H   0  0  0  0  0  0  0  0  0  0  0  0
   -5.5452   -4.5632    0.5791 H   0  0  0  0  0  0  0  0  0  0  0  0
   -4.3539   -0.9182    0.6067 H   0  0  0  0  0  0  0  0  0  0  0  0
   -3.6789   -1.8297    2.0088 H   0  0  0  0  0  0  0  0  0  0  0  0
  1  2  2  0
  2  3  1  0
  3  4  1  0
  4  5  1  0
  5  6  2  0
  5  7  1  0
  7  8  1  0
  8  9  2  0
  9 10  1  0
 10 11  2  0
 11 12  1  0
 12 13  2  0
 11 14  1  0
 14 15  2  0
 14 16  2  0
 14 17  1  0
 17 18  1  0
 18 19  1  0
 19 20  1  0
 20 21  1  0
 21 22  1  0
 22 23  1  0
  7  2  1  0
  8 13  1  0
 23 19  1  0
  3 24  1  0
  3 25  1  0
  4 26  1  0
  4 27  1  0
  9 28  1  0
 10 29  1  0
 12 30  1  0
 17 31  1  0
 18 32  1  0
 18 33  1  0
 19 34  1  0
 20 35  1  0
 20 36  1  0
 21 37  1  0
 21 38  1  0
 23 39  1  0
 23 40  1  0
M  END
$$$$
