
     RDKit          3D

 45 48  0  0  0  0  0  0  0  0999 V2000
   -0.4853    2.3498    0.8900 O   0  0  0  0  0  0  0  0  0  0  0  0
    0.2604    1.6027    0.1991 C   0  0  0  0  0  0  0  0  0  0  0  0
    1.7125    1.5835    0.4794 C   0  0  0  0  0  0  0  0  0  0  0  0
    2.6470    1.4472   -0.5759 C   0  0  0  0  0  0  0  0  0  0  0  0
    4.0256    1.4350   -0.3139 C   0  0  0  0  0  0  0  0  0  0  0  0
    4.4436    1.5708    1.0053 C   0  0  0  0  0  0  0  0  0  0  0  0
    6.0049    1.5959    1.6163 S   0  0  0  0  0  0  0  0  0  0  0  0
    5.4638    1.7987    3.2080 C   0  0  0  0  0  0  0  0  0  0  0  0
    4.1109    1.8486    3.2787 N   0  0  0  0  0  0  0  0  0  0  0  0
    3.5487    1.7215    2.0494 C   0  0  0  0  0  0  0  0  0  0  0  0
    2.1749    1.7361    1.8053 C   0  0  0  0  0  0  0  0  0  0  0  0
   -0.3207    0.7710   -0.8253 N   0  0  0  0  0  0  0  0  0  0  0  0
    0.1857   -0.5902   -1.0563 C   0  0  0  0  0  0  0  0  0  0  0  0
   -0.9410   -1.5359   -1.5092 C   0  0  0  0  0  0  0  0  0  0  0  0
   -2.3031   -1.2120   -0.8188 C   0  0  0  0  0  0  0  0  0  0  0  0
   -3.4031   -2.2161   -1.3224 C   0  0  0  0  0  0  0  0  0  0  0  0
   -3.7452   -3.3554   -0.3394 C   0  0  0  0  0  0  0  0  0  0  0  0
   -2.5096   -3.8672    0.4061 C   0  0  0  0  0  0  0  0  0  0  0  0
   -2.8926   -4.9112    1.2629 O   0  0  0  0  0  0  0  0  0  0  0  0
   -1.8229   -2.7402    1.2156 C   0  0  0  0  0  0  0  0  0  0  0  0
   -2.1836   -1.3215    0.7326 C   0  0  0  0  0  0  0  0  0  0  0  0
   -2.7199    0.2518   -1.2025 C   0  0  0  0  0  0  0  0  0  0  0  0
   -1.5403    1.1940   -1.5197 C   0  0  0  0  0  0  0  0  0  0  0  0
    2.3104    1.3746   -1.6018 H   0  0  0  0  0  0  0  0  0  0  0  0
    4.7427    1.3314   -1.1178 H   0  0  0  0  0  0  0  0  0  0  0  0
    6.1063    1.8809    4.0738 H   0  0  0  0  0  0  0  0  0  0  0  0
    1.4803    1.8502    2.6287 H   0  0  0  0  0  0  0  0  0  0  0  0
    0.9817   -0.5707   -1.8296 H   0  0  0  0  0  0  0  0  0  0  0  0
    0.6288   -0.9925   -0.1188 H   0  0  0  0  0  0  0  0  0  0  0  0
   -0.6244   -2.5825   -1.3285 H   0  0  0  0  0  0  0  0  0  0  0  0
   -1.0613   -1.4309   -2.6108 H   0  0  0  0  0  0  0  0  0  0  0  0
   -4.3603   -1.6862   -1.5222 H   0  0  0  0  0  0  0  0  0  0  0  0
   -3.1015   -2.6644   -2.2948 H   0  0  0  0  0  0  0  0  0  0  0  0
   -4.2145   -4.1927   -0.9008 H   0  0  0  0  0  0  0  0  0  0  0  0
   -4.4933   -2.9935    0.4008 H   0  0  0  0  0  0  0  0  0  0  0  0
   -1.8001   -4.2688   -0.3533 H   0  0  0  0  0  0  0  0  0  0  0  0
   -2.0583   -5.3726    1.5410 H   0  0  0  0  0  0  0  0  0  0  0  0
   -2.1042   -2.8179    2.2890 H   0  0  0  0  0  0  0  0  0  0  0  0
   -0.7212   -2.8790    1.1632 H   0  0  0  0  0  0  0  0  0  0  0  0
   -1.4433   -0.6023    1.1400 H   0  0  0  0  0  0  0  0  0  0  0  0
   -3.1595   -1.0423    1.1891 H   0  0  0  0  0  0  0  0  0  0  0  0
   -3.3661    0.2472   -2.1082 H   0  0  0  0  0  0  0  0  0  0  0  0
   -3.3359    0.7029   -0.3937 H   0  0  0  0  0  0  0  0  0  0  0  0
   -1.3422    1.1744   -2.6139 H   0  0  0  0  0  0  0  0  0  0  0  0
   -1.8125    2.2416   -1.2651 H   0  0  0  0  0  0  0  0  0  0  0  0
  1  2  2  0
  2  3  1  0
  3  4  2  0
  4  5  1  0
  5  6  2  0
  6  7  1  0
  7  8  1  0
  8  9  2  0
  9 10  1  0
 10 11  2  0
  2 12  1  0
 12 13  1  0
 13 14  1  0
 14 15  1  0
 15 16  1  0
 16 17  1  0
 17 18  1  0
 18 19  1  0
 18 20  1  0
 20 21  1  0
 15 22  1  0
 22 23  1  0
  3 11  1  0
  6 10  1  0
 23 12  1  0
 21 15  1  0
  4 24  1  0
  5 25  1  0
  8 26  1  0
 11 27  1  0
 13 28  1  0
 13 29  1  0
 14 30  1  0
 14 31  1  0
 16 32  1  0
 16 33  1  0
 17 34  1  0
 17 35  1  0
 18 36  1  0
 19 37  1  0
 20 38  1  0
 20 39  1  0
 21 40  1  0
 21 41  1  0
 22 42  1  0
 22 43  1  0
 23 44  1  0
 23 45  1  0
M  END
$$$$
