
     RDKit          3D

 41 43  0  0  0  0  0  0  0  0999 V2000
   -1.8311   -0.4176   -2.2236 C   0  0  0  0  0  0  0  0  0  0  0  0
   -0.7645   -0.8740   -1.3367 N   0  0  0  0  0  0  0  0  0  0  0  0
   -0.6322   -2.1388   -0.9717 N   0  0  0  0  0  0  0  0  0  0  0  0
    0.4923   -2.2434   -0.2318 C   0  0  0  0  0  0  0  0  0  0  0  0
    1.0977   -0.9980   -0.1337 C   0  0  0  0  0  0  0  0  0  0  0  0
    0.2615   -0.1538   -0.8333 C   0  0  0  0  0  0  0  0  0  0  0  0
    0.4895    1.2869   -1.0325 C   0  0  0  0  0  0  0  0  0  0  0  0
    1.6114    1.6741   -1.4564 O   0  0  0  0  0  0  0  0  0  0  0  0
   -0.5279    2.2518   -0.7214 N   0  0  0  0  0  0  0  0  0  0  0  0
   -1.5641    2.0350    0.2762 C   0  0  0  0  0  0  0  0  0  0  0  0
   -2.1736    3.4079    0.5391 C   0  0  0  0  0  0  0  0  0  0  0  0
   -1.7742    4.2776   -0.6703 C   0  0  0  0  0  0  0  0  0  0  0  0
   -2.8391    4.1805   -1.6975 C   0  0  0  0  0  0  0  0  0  0  0  0
   -3.6701    4.1028   -2.4994 N   0  0  0  0  0  0  0  0  0  0  0  0
   -0.4948    3.6181   -1.2150 C   0  0  0  0  0  0  0  0  0  0  0  0
   -1.5420    5.7287   -0.2729 C   0  0  0  0  0  0  0  0  0  0  0  0
   -0.5503    6.0726    0.6992 N   0  0  0  0  0  0  0  0  0  0  0  0
   -2.2249    6.6529   -0.7946 O   0  0  0  0  0  0  0  0  0  0  0  0
    0.9729   -3.5183    0.3547 C   0  0  0  0  0  0  0  0  0  0  0  0
    2.1532   -3.5725    1.1218 C   0  0  0  0  0  0  0  0  0  0  0  0
    2.5891   -4.7845    1.6666 C   0  0  0  0  0  0  0  0  0  0  0  0
    1.8556   -5.9539    1.4541 C   0  0  0  0  0  0  0  0  0  0  0  0
    2.2809   -7.1273    1.9837 F   0  0  0  0  0  0  0  0  0  0  0  0
    0.6837   -5.9133    0.6959 C   0  0  0  0  0  0  0  0  0  0  0  0
    0.2431   -4.7043    0.1488 C   0  0  0  0  0  0  0  0  0  0  0  0
   -2.8029   -0.4601   -1.6897 H   0  0  0  0  0  0  0  0  0  0  0  0
   -1.6490    0.6188   -2.5755 H   0  0  0  0  0  0  0  0  0  0  0  0
   -1.8825   -1.0807   -3.1124 H   0  0  0  0  0  0  0  0  0  0  0  0
    2.0115   -0.7290    0.3782 H   0  0  0  0  0  0  0  0  0  0  0  0
   -1.1261    1.6152    1.2081 H   0  0  0  0  0  0  0  0  0  0  0  0
   -2.3359    1.3448   -0.1200 H   0  0  0  0  0  0  0  0  0  0  0  0
   -3.2762    3.3391    0.6776 H   0  0  0  0  0  0  0  0  0  0  0  0
   -1.7429    3.8085    1.4824 H   0  0  0  0  0  0  0  0  0  0  0  0
   -0.4561    3.6230   -2.3277 H   0  0  0  0  0  0  0  0  0  0  0  0
    0.4253    4.1136   -0.8371 H   0  0  0  0  0  0  0  0  0  0  0  0
    0.0378    5.3429    1.1588 H   0  0  0  0  0  0  0  0  0  0  0  0
   -0.4012    7.0715    0.9640 H   0  0  0  0  0  0  0  0  0  0  0  0
    2.7431   -2.6855    1.3053 H   0  0  0  0  0  0  0  0  0  0  0  0
    3.4974   -4.8156    2.2545 H   0  0  0  0  0  0  0  0  0  0  0  0
    0.1145   -6.8191    0.5308 H   0  0  0  0  0  0  0  0  0  0  0  0
   -0.6687   -4.6990   -0.4353 H   0  0  0  0  0  0  0  0  0  0  0  0
  1  2  1  0
  2  3  1  0
  3  4  2  0
  4  5  1  0
  5  6  2  0
  6  7  1  0
  7  8  2  0
  7  9  1  0
  9 10  1  0
 10 11  1  0
 11 12  1  0
 12 13  1  0
 13 14  3  0
 12 15  1  0
 12 16  1  0
 16 17  1  0
 16 18  2  0
  4 19  1  0
 19 20  2  0
 20 21  1  0
 21 22  2  0
 22 23  1  0
 22 24  1  0
 24 25  2  0
  6  2  1  0
 15  9  1  0
 19 25  1  0
  1 26  1  0
  1 27  1  0
  1 28  1  0
  5 29  1  0
 10 30  1  0
 10 31  1  0
 11 32  1  0
 11 33  1  0
 15 34  1  0
 15 35  1  0
 17 36  1  0
 17 37  1  0
 20 38  1  0
 21 39  1  0
 24 40  1  0
 25 41  1  0
M  END
$$$$
