
     RDKit          3D

 45 48  0  0  0  0  0  0  0  0999 V2000
    2.0866    0.1792   -3.9818 O   0  0  0  0  0  0  0  0  0  0  0  0
    1.6809   -0.2979   -2.8866 C   0  0  0  0  0  0  0  0  0  0  0  0
    2.6043   -0.3248   -1.7280 C   0  0  0  0  0  0  0  0  0  0  0  0
    4.0030   -0.4092   -1.9393 C   0  0  0  0  0  0  0  0  0  0  0  0
    4.8925   -0.4233   -0.8538 C   0  0  0  0  0  0  0  0  0  0  0  0
    4.3628   -0.3427    0.4292 C   0  0  0  0  0  0  0  0  0  0  0  0
    5.1672   -0.3324    1.9004 S   0  0  0  0  0  0  0  0  0  0  0  0
    3.7250   -0.2025    2.7782 C   0  0  0  0  0  0  0  0  0  0  0  0
    2.6409   -0.1663    1.9651 N   0  0  0  0  0  0  0  0  0  0  0  0
    3.0025   -0.2457    0.6588 C   0  0  0  0  0  0  0  0  0  0  0  0
    2.1056   -0.2298   -0.4092 C   0  0  0  0  0  0  0  0  0  0  0  0
    0.3282   -0.7842   -2.7875 N   0  0  0  0  0  0  0  0  0  0  0  0
    0.0420   -2.0728   -2.1472 C   0  0  0  0  0  0  0  0  0  0  0  0
   -1.2147   -1.9868   -1.2617 C   0  0  0  0  0  0  0  0  0  0  0  0
   -2.3140   -0.9857   -1.7754 C   0  0  0  0  0  0  0  0  0  0  0  0
   -2.2432    0.3798   -0.9969 C   0  0  0  0  0  0  0  0  0  0  0  0
   -3.3301    0.5695    0.0803 C   0  0  0  0  0  0  0  0  0  0  0  0
   -3.6443   -0.7268    0.8415 C   0  0  0  0  0  0  0  0  0  0  0  0
   -2.5272   -1.1326    1.5904 O   0  0  0  0  0  0  0  0  0  0  0  0
   -4.0815   -1.8645   -0.1103 C   0  0  0  0  0  0  0  0  0  0  0  0
   -3.7215   -1.6183   -1.5896 C   0  0  0  0  0  0  0  0  0  0  0  0
   -2.1073   -0.7283   -3.2955 C   0  0  0  0  0  0  0  0  0  0  0  0
   -0.7155   -0.1461   -3.5991 C   0  0  0  0  0  0  0  0  0  0  0  0
    4.4032   -0.4748   -2.9434 H   0  0  0  0  0  0  0  0  0  0  0  0
    5.9608   -0.4942   -1.0121 H   0  0  0  0  0  0  0  0  0  0  0  0
    3.6595   -0.1525    3.8564 H   0  0  0  0  0  0  0  0  0  0  0  0
    1.0465   -0.1325   -0.2171 H   0  0  0  0  0  0  0  0  0  0  0  0
   -0.1207   -2.8326   -2.9427 H   0  0  0  0  0  0  0  0  0  0  0  0
    0.9002   -2.4291   -1.5386 H   0  0  0  0  0  0  0  0  0  0  0  0
   -1.6234   -3.0188   -1.1921 H   0  0  0  0  0  0  0  0  0  0  0  0
   -0.8966   -1.7271   -0.2313 H   0  0  0  0  0  0  0  0  0  0  0  0
   -1.2456    0.5127   -0.5278 H   0  0  0  0  0  0  0  0  0  0  0  0
   -2.3528    1.2378   -1.6953 H   0  0  0  0  0  0  0  0  0  0  0  0
   -4.2639    0.9335   -0.4029 H   0  0  0  0  0  0  0  0  0  0  0  0
   -3.0082    1.3578    0.7953 H   0  0  0  0  0  0  0  0  0  0  0  0
   -4.4897   -0.5229    1.5402 H   0  0  0  0  0  0  0  0  0  0  0  0
   -2.4501   -0.5068    2.3575 H   0  0  0  0  0  0  0  0  0  0  0  0
   -3.6357   -2.8271    0.2232 H   0  0  0  0  0  0  0  0  0  0  0  0
   -5.1842   -1.9928   -0.0433 H   0  0  0  0  0  0  0  0  0  0  0  0
   -3.7913   -2.5816   -2.1421 H   0  0  0  0  0  0  0  0  0  0  0  0
   -4.4893   -0.9437   -2.0307 H   0  0  0  0  0  0  0  0  0  0  0  0
   -2.2197   -1.6854   -3.8526 H   0  0  0  0  0  0  0  0  0  0  0  0
   -2.8838   -0.0334   -3.6853 H   0  0  0  0  0  0  0  0  0  0  0  0
   -0.4891   -0.2853   -4.6784 H   0  0  0  0  0  0  0  0  0  0  0  0
   -0.7197    0.9455   -3.3911 H   0  0  0  0  0  0  0  0  0  0  0  0
  1  2  2  0
  2  3  1  0
  3  4  2  0
  4  5  1  0
  5  6  2  0
  6  7  1  0
  7  8  1  0
  8  9  2  0
  9 10  1  0
 10 11  2  0
  2 12  1  0
 12 13  1  0
 13 14  1  0
 14 15  1  0
 15 16  1  0
 16 17  1  0
 17 18  1  0
 18 19  1  0
 18 20  1  0
 20 21  1  0
 15 22  1  0
 22 23  1  0
  3 11  1  0
  6 10  1  0
 23 12  1  0
 21 15  1  0
  4 24  1  0
  5 25  1  0
  8 26  1  0
 11 27  1  0
 13 28  1  0
 13 29  1  0
 14 30  1  0
 14 31  1  0
 16 32  1  0
 16 33  1  0
 17 34  1  0
 17 35  1  0
 18 36  1  0
 19 37  1  0
 20 38  1  0
 20 39  1  0
 21 40  1  0
 21 41  1  0
 22 42  1  0
 22 43  1  0
 23 44  1  0
 23 45  1  0
M  END
$$$$
