
     RDKit          3D

 49 51  0  0  0  0  0  0  0  0999 V2000
   -4.0060    0.2827    0.3178 C   0  0  0  0  0  0  0  0  0  0  0  0
   -3.6165    1.6567    0.6731 N   0  0  0  0  0  0  0  0  0  0  0  0
   -4.4599    2.6151   -0.0605 C   0  0  0  0  0  0  0  0  0  0  0  0
   -3.7233    1.8572    2.1357 C   0  0  0  0  0  0  0  0  0  0  0  0
   -2.7722    2.9602    2.6150 C   0  0  0  0  0  0  0  0  0  0  0  0
   -1.3434    2.6419    2.2586 C   0  0  0  0  0  0  0  0  0  0  0  0
   -0.6104    1.7284    3.0316 C   0  0  0  0  0  0  0  0  0  0  0  0
    0.6963    1.3878    2.6704 C   0  0  0  0  0  0  0  0  0  0  0  0
    1.2867    1.9509    1.5273 C   0  0  0  0  0  0  0  0  0  0  0  0
    0.5562    2.8715    0.7595 C   0  0  0  0  0  0  0  0  0  0  0  0
   -0.7530    3.2076    1.1166 C   0  0  0  0  0  0  0  0  0  0  0  0
    2.6838    1.5631    1.1201 C   0  0  0  0  0  0  0  0  0  0  0  0
    2.6945    0.9949   -0.2268 N   0  0  0  0  0  0  0  0  0  0  0  0
    2.0170   -0.2248   -0.5557 C   0  0  0  0  0  0  0  0  0  0  0  0
    1.3654   -0.8492    0.3271 O   0  0  0  0  0  0  0  0  0  0  0  0
    2.0800   -0.7810   -1.9472 C   0  0  0  0  0  0  0  0  0  0  0  0
    2.8377   -2.0806   -1.9545 C   0  0  0  0  0  0  0  0  0  0  0  0
    4.2482   -2.0791   -2.0557 C   0  0  0  0  0  0  0  0  0  0  0  0
    4.9677   -3.2849   -2.0360 C   0  0  0  0  0  0  0  0  0  0  0  0
    4.2576   -4.4732   -1.9073 C   0  0  0  0  0  0  0  0  0  0  0  0
    4.8481   -6.0423   -1.8546 S   0  0  0  0  0  0  0  0  0  0  0  0
    3.3340   -6.7739   -1.6872 C   0  0  0  0  0  0  0  0  0  0  0  0
    2.3520   -5.7854   -1.6706 C   0  0  0  0  0  0  0  0  0  0  0  0
    2.8787   -4.4958   -1.7955 C   0  0  0  0  0  0  0  0  0  0  0  0
    2.1493   -3.3035   -1.8121 C   0  0  0  0  0  0  0  0  0  0  0  0
   -3.9307    0.1319   -0.7820 H   0  0  0  0  0  0  0  0  0  0  0  0
   -3.3135   -0.4447    0.7917 H   0  0  0  0  0  0  0  0  0  0  0  0
   -5.0464    0.0604    0.6477 H   0  0  0  0  0  0  0  0  0  0  0  0
   -4.3137    2.4845   -1.1543 H   0  0  0  0  0  0  0  0  0  0  0  0
   -4.1734    3.6586    0.1833 H   0  0  0  0  0  0  0  0  0  0  0  0
   -5.5375    2.4697    0.1780 H   0  0  0  0  0  0  0  0  0  0  0  0
   -3.4469    0.9265    2.6822 H   0  0  0  0  0  0  0  0  0  0  0  0
   -4.7661    2.1043    2.4341 H   0  0  0  0  0  0  0  0  0  0  0  0
   -2.8618    3.0550    3.7174 H   0  0  0  0  0  0  0  0  0  0  0  0
   -3.0720    3.9405    2.1909 H   0  0  0  0  0  0  0  0  0  0  0  0
   -1.0556    1.2716    3.9076 H   0  0  0  0  0  0  0  0  0  0  0  0
    1.2416    0.6748    3.2761 H   0  0  0  0  0  0  0  0  0  0  0  0
    0.9962    3.3152   -0.1252 H   0  0  0  0  0  0  0  0  0  0  0  0
   -1.3091    3.9016    0.4987 H   0  0  0  0  0  0  0  0  0  0  0  0
    3.3266    2.4670    1.1436 H   0  0  0  0  0  0  0  0  0  0  0  0
    3.1204    0.8287    1.8281 H   0  0  0  0  0  0  0  0  0  0  0  0
    3.2362    1.4923   -0.9688 H   0  0  0  0  0  0  0  0  0  0  0  0
    2.5678   -0.0576   -2.6352 H   0  0  0  0  0  0  0  0  0  0  0  0
    1.0445   -0.9335   -2.3238 H   0  0  0  0  0  0  0  0  0  0  0  0
    4.7852   -1.1442   -2.1482 H   0  0  0  0  0  0  0  0  0  0  0  0
    6.0462   -3.2891   -2.1180 H   0  0  0  0  0  0  0  0  0  0  0  0
    3.1559   -7.8375   -1.6057 H   0  0  0  0  0  0  0  0  0  0  0  0
    1.2965   -5.9982   -1.5720 H   0  0  0  0  0  0  0  0  0  0  0  0
    1.0709   -3.3228   -1.7144 H   0  0  0  0  0  0  0  0  0  0  0  0
  1  2  1  0
  2  3  1  0
  2  4  1  0
  4  5  1  0
  5  6  1  0
  6  7  2  0
  7  8  1  0
  8  9  2  0
  9 10  1  0
 10 11  2  0
  9 12  1  0
 12 13  1  0
 13 14  1  0
 14 15  2  0
 14 16  1  0
 16 17  1  0
 17 18  2  0
 18 19  1  0
 19 20  2  0
 20 21  1  0
 21 22  1  0
 22 23  2  0
 23 24  1  0
 24 25  2  0
  6 11  1  0
 17 25  1  0
 20 24  1  0
  1 26  1  0
  1 27  1  0
  1 28  1  0
  3 29  1  0
  3 30  1  0
  3 31  1  0
  4 32  1  0
  4 33  1  0
  5 34  1  0
  5 35  1  0
  7 36  1  0
  8 37  1  0
 10 38  1  0
 11 39  1  0
 12 40  1  0
 12 41  1  0
 13 42  1  0
 16 43  1  0
 16 44  1  0
 18 45  1  0
 19 46  1  0
 22 47  1  0
 23 48  1  0
 25 49  1  0
M  END
$$$$
