
     RDKit          3D

 42 44  0  0  0  0  0  0  0  0999 V2000
   -4.4051    1.5565   -4.3130 C   0  0  0  0  0  0  0  0  0  0  0  0
   -3.8362    0.4136   -3.5436 C   0  0  0  0  0  0  0  0  0  0  0  0
   -4.0035   -0.8776   -3.8974 N   0  0  0  0  0  0  0  0  0  0  0  0
   -3.3579   -1.5537   -2.9279 C   0  0  0  0  0  0  0  0  0  0  0  0
   -2.8313   -0.6499   -2.0244 C   0  0  0  0  0  0  0  0  0  0  0  0
   -3.1482    0.5542   -2.4340 O   0  0  0  0  0  0  0  0  0  0  0  0
   -2.0472   -0.9346   -0.8014 C   0  0  0  0  0  0  0  0  0  0  0  0
   -1.5989    0.1288   -0.0019 C   0  0  0  0  0  0  0  0  0  0  0  0
   -0.8555   -0.1155    1.1560 C   0  0  0  0  0  0  0  0  0  0  0  0
   -0.5388   -1.4320    1.5349 C   0  0  0  0  0  0  0  0  0  0  0  0
   -0.9957   -2.4942    0.7416 C   0  0  0  0  0  0  0  0  0  0  0  0
   -1.7399   -2.2510   -0.4162 C   0  0  0  0  0  0  0  0  0  0  0  0
    0.2352   -1.7187    2.7130 N   0  0  0  0  0  0  0  0  0  0  0  0
    1.1715   -0.5310    3.5641 S   0  0  0  0  0  0  0  0  0  0  0  0
    0.2342    0.4045    4.2761 O   0  0  0  0  0  0  0  0  0  0  0  0
    2.0319   -1.2137    4.5896 O   0  0  0  0  0  0  0  0  0  0  0  0
    2.2153    0.3548    2.4378 C   0  0  0  0  0  0  0  0  0  0  0  0
    2.1728    1.7588    2.4408 C   0  0  0  0  0  0  0  0  0  0  0  0
    2.9487    2.5032    1.5424 C   0  0  0  0  0  0  0  0  0  0  0  0
    2.9155    4.0027    1.5786 C   0  0  0  0  0  0  0  0  0  0  0  0
    3.8003    1.8384    0.6533 C   0  0  0  0  0  0  0  0  0  0  0  0
    3.8583    0.4445    0.6436 C   0  0  0  0  0  0  0  0  0  0  0  0
    3.0812   -0.3128    1.5363 C   0  0  0  0  0  0  0  0  0  0  0  0
    3.1607   -1.8154    1.4688 C   0  0  0  0  0  0  0  0  0  0  0  0
   -4.3358    1.3507   -5.4017 H   0  0  0  0  0  0  0  0  0  0  0  0
   -5.4695    1.6972   -4.0327 H   0  0  0  0  0  0  0  0  0  0  0  0
   -3.8407    2.4846   -4.0842 H   0  0  0  0  0  0  0  0  0  0  0  0
   -3.2868   -2.6318   -2.8932 H   0  0  0  0  0  0  0  0  0  0  0  0
   -1.8258    1.1533   -0.2705 H   0  0  0  0  0  0  0  0  0  0  0  0
   -0.5418    0.7294    1.7510 H   0  0  0  0  0  0  0  0  0  0  0  0
   -0.7663   -3.5162    1.0166 H   0  0  0  0  0  0  0  0  0  0  0  0
   -2.0691   -3.0965   -1.0041 H   0  0  0  0  0  0  0  0  0  0  0  0
    0.3349   -2.7106    3.0252 H   0  0  0  0  0  0  0  0  0  0  0  0
    1.5280    2.2789    3.1379 H   0  0  0  0  0  0  0  0  0  0  0  0
    3.6601    4.3705    2.3150 H   0  0  0  0  0  0  0  0  0  0  0  0
    3.1542    4.4260    0.5797 H   0  0  0  0  0  0  0  0  0  0  0  0
    1.9067    4.3644    1.8713 H   0  0  0  0  0  0  0  0  0  0  0  0
    4.4194    2.3993   -0.0361 H   0  0  0  0  0  0  0  0  0  0  0  0
    4.5169   -0.0450   -0.0634 H   0  0  0  0  0  0  0  0  0  0  0  0
    4.0683   -2.1469    0.9207 H   0  0  0  0  0  0  0  0  0  0  0  0
    2.2715   -2.2130    0.9381 H   0  0  0  0  0  0  0  0  0  0  0  0
    3.2161   -2.2537    2.4857 H   0  0  0  0  0  0  0  0  0  0  0  0
  1  2  1  0
  2  3  2  0
  3  4  1  0
  4  5  2  0
  5  6  1  0
  5  7  1  0
  7  8  2  0
  8  9  1  0
  9 10  2  0
 10 11  1  0
 11 12  2  0
 10 13  1  0
 13 14  1  0
 14 15  2  0
 14 16  2  0
 14 17  1  0
 17 18  2  0
 18 19  1  0
 19 20  1  0
 19 21  2  0
 21 22  1  0
 22 23  2  0
 23 24  1  0
  6  2  1  0
  7 12  1  0
 17 23  1  0
  1 25  1  0
  1 26  1  0
  1 27  1  0
  4 28  1  0
  8 29  1  0
  9 30  1  0
 11 31  1  0
 12 32  1  0
 13 33  1  0
 18 34  1  0
 20 35  1  0
 20 36  1  0
 20 37  1  0
 21 38  1  0
 22 39  1  0
 24 40  1  0
 24 41  1  0
 24 42  1  0
M  END
$$$$
