
     RDKit          3D

 34 37  0  0  0  0  0  0  0  0999 V2000
   -3.7278   -0.9679   -1.5774 C   0  0  0  0  0  0  0  0  0  0  0  0
   -2.3318   -1.0142   -0.9484 C   0  0  1  0  0  0  0  0  0  0  0  0
   -1.4537   -0.0091   -1.5575 N   0  0  0  0  0  0  0  0  0  0  0  0
   -0.0402    0.0166   -1.3066 C   0  0  0  0  0  0  0  0  0  0  0  0
    0.5496   -0.9135   -0.4933 N   0  0  0  0  0  0  0  0  0  0  0  0
    1.8944   -0.8988   -0.2343 C   0  0  0  0  0  0  0  0  0  0  0  0
    2.4715   -1.8584    0.6033 C   0  0  0  0  0  0  0  0  0  0  0  0
    3.8480   -1.8249    0.8565 C   0  0  0  0  0  0  0  0  0  0  0  0
    4.6510   -0.8346    0.2753 C   0  0  0  0  0  0  0  0  0  0  0  0
    4.0850    0.1315   -0.5641 C   0  0  0  0  0  0  0  0  0  0  0  0
    2.7077    0.1019   -0.8203 C   0  0  0  0  0  0  0  0  0  0  0  0
    2.0913    1.0067   -1.6217 N   0  0  0  0  0  0  0  0  0  0  0  0
    2.6000    2.0290   -2.2813 N   0  0  0  0  0  0  0  0  0  0  0  0
    1.6023    2.6275   -2.9263 N   0  0  0  0  0  0  0  0  0  0  0  0
    0.4485    2.0027   -2.6912 N   0  0  0  0  0  0  0  0  0  0  0  0
    0.7834    0.9914   -1.8716 C   0  0  0  0  0  0  0  0  0  0  0  0
   -2.4208   -0.8036    0.5426 C   0  0  0  0  0  0  0  0  0  0  0  0
   -2.7265    0.4531    1.0895 C   0  0  0  0  0  0  0  0  0  0  0  0
   -2.7981    0.5966    2.4389 N   0  0  0  0  0  0  0  0  0  0  0  0
   -2.5827   -0.4550    3.2714 C   0  0  0  0  0  0  0  0  0  0  0  0
   -2.2842   -1.7071    2.7322 C   0  0  0  0  0  0  0  0  0  0  0  0
   -2.2118   -1.8535    1.3834 N   0  0  0  0  0  0  0  0  0  0  0  0
   -4.1970    0.0277   -1.4250 H   0  0  0  0  0  0  0  0  0  0  0  0
   -3.6557   -1.1645   -2.6682 H   0  0  0  0  0  0  0  0  0  0  0  0
   -4.3778   -1.7464   -1.1234 H   0  0  0  0  0  0  0  0  0  0  0  0
   -1.9095   -2.0235   -1.1527 H   0  0  0  0  0  0  0  0  0  0  0  0
   -1.8634    0.7121   -2.1946 H   0  0  0  0  0  0  0  0  0  0  0  0
    1.8587   -2.6271    1.0577 H   0  0  0  0  0  0  0  0  0  0  0  0
    4.2943   -2.5678    1.5049 H   0  0  0  0  0  0  0  0  0  0  0  0
    5.7143   -0.8166    0.4769 H   0  0  0  0  0  0  0  0  0  0  0  0
    4.7146    0.8925   -1.0075 H   0  0  0  0  0  0  0  0  0  0  0  0
   -2.9026    1.3087    0.4506 H   0  0  0  0  0  0  0  0  0  0  0  0
   -2.6442   -0.3199    4.3429 H   0  0  0  0  0  0  0  0  0  0  0  0
   -2.1118   -2.5563    3.3797 H   0  0  0  0  0  0  0  0  0  0  0  0
  1  2  1  0
  2  3  1  0
  3  4  1  0
  4  5  2  0
  5  6  1  0
  6  7  2  0
  7  8  1  0
  8  9  2  0
  9 10  1  0
 10 11  2  0
 11 12  1  0
 12 13  1  0
 13 14  2  0
 14 15  1  0
 15 16  2  0
  2 17  1  0
 17 18  2  0
 18 19  1  0
 19 20  2  0
 20 21  1  0
 21 22  2  0
 16  4  1  0
  6 11  1  0
 16 12  1  0
 17 22  1  0
  1 23  1  0
  1 24  1  0
  1 25  1  0
  2 26  1  1
  3 27  1  0
  7 28  1  0
  8 29  1  0
  9 30  1  0
 10 31  1  0
 18 32  1  0
 20 33  1  0
 21 34  1  0
M  END
$$$$
