
     RDKit          3D

 51 54  0  0  0  0  0  0  0  0999 V2000
   -0.2069   -1.5707   -0.0120 O   0  0  0  0  0  0  0  0  0  0  0  0
   -1.2378   -1.1655   -0.6144 C   0  0  0  0  0  0  0  0  0  0  0  0
   -2.5736   -1.7481   -0.2520 C   0  0  0  0  0  0  0  0  0  0  0  0
   -3.1290   -1.1332    1.0479 C   0  0  0  0  0  0  0  0  0  0  0  0
   -3.4158    0.3892    0.8921 C   0  0  0  0  0  0  0  0  0  0  0  0
   -4.3556    0.9173    2.0082 C   0  0  0  0  0  0  0  0  0  0  0  0
   -3.7801    0.6457    3.4029 C   0  0  0  0  0  0  0  0  0  0  0  0
   -4.3562   -0.7212    3.7789 C   0  0  0  0  0  0  0  0  0  0  0  0
   -5.2084   -1.1085    2.5649 C   0  0  0  0  0  0  0  0  0  0  0  0
   -4.3855   -1.9146    1.5249 C   0  0  0  0  0  0  0  0  0  0  0  0
   -5.6067    0.1667    1.9776 N   0  0  0  0  0  0  0  0  0  0  0  0
   -1.1527   -0.1031   -1.5780 N   0  0  0  0  0  0  0  0  0  0  0  0
    0.0841    0.4390   -2.0706 C   0  0  0  0  0  0  0  0  0  0  0  0
    1.2014   -0.3791   -2.3051 C   0  0  0  0  0  0  0  0  0  0  0  0
    2.3866    0.1681   -2.8035 C   0  0  0  0  0  0  0  0  0  0  0  0
    2.4729    1.5446   -3.0871 C   0  0  0  0  0  0  0  0  0  0  0  0
    3.6472    2.1385   -3.5807 O   0  0  0  0  0  0  0  0  0  0  0  0
    4.9056    1.4808   -3.7334 C   0  0  0  0  0  0  0  0  0  0  0  0
    5.5121    1.1677   -2.3916 C   0  0  0  0  0  0  0  0  0  0  0  0
    5.6433    2.1706   -1.4202 C   0  0  0  0  0  0  0  0  0  0  0  0
    6.2169    1.8736   -0.1827 C   0  0  0  0  0  0  0  0  0  0  0  0
    6.6641    0.5755    0.0697 C   0  0  0  0  0  0  0  0  0  0  0  0
    6.5426   -0.3843   -0.8855 N   0  0  0  0  0  0  0  0  0  0  0  0
    5.9866   -0.1201   -2.0982 C   0  0  0  0  0  0  0  0  0  0  0  0
    1.3468    2.3551   -2.8774 C   0  0  0  0  0  0  0  0  0  0  0  0
    1.4107    4.0754   -3.2296 Cl  0  0  0  0  0  0  0  0  0  0  0  0
    0.1612    1.8037   -2.3799 C   0  0  0  0  0  0  0  0  0  0  0  0
   -2.4516   -2.8455   -0.1188 H   0  0  0  0  0  0  0  0  0  0  0  0
   -3.2921   -1.5955   -1.0867 H   0  0  0  0  0  0  0  0  0  0  0  0
   -2.3493   -1.2540    1.8333 H   0  0  0  0  0  0  0  0  0  0  0  0
   -2.4597    0.9563    0.9153 H   0  0  0  0  0  0  0  0  0  0  0  0
   -3.8951    0.5863   -0.0918 H   0  0  0  0  0  0  0  0  0  0  0  0
   -4.5519    2.0017    1.8630 H   0  0  0  0  0  0  0  0  0  0  0  0
   -2.6681    0.6427    3.4115 H   0  0  0  0  0  0  0  0  0  0  0  0
   -4.1421    1.4182    4.1165 H   0  0  0  0  0  0  0  0  0  0  0  0
   -3.5560   -1.4634    3.9918 H   0  0  0  0  0  0  0  0  0  0  0  0
   -5.0038   -0.6245    4.6779 H   0  0  0  0  0  0  0  0  0  0  0  0
   -6.1049   -1.6872    2.8764 H   0  0  0  0  0  0  0  0  0  0  0  0
   -5.0429   -2.1421    0.6567 H   0  0  0  0  0  0  0  0  0  0  0  0
   -4.0755   -2.8865    1.9673 H   0  0  0  0  0  0  0  0  0  0  0  0
   -5.9605    0.0466    0.9984 H   0  0  0  0  0  0  0  0  0  0  0  0
   -2.0403    0.3702   -1.8615 H   0  0  0  0  0  0  0  0  0  0  0  0
    1.1531   -1.4454   -2.1296 H   0  0  0  0  0  0  0  0  0  0  0  0
    3.2237   -0.4926   -2.9755 H   0  0  0  0  0  0  0  0  0  0  0  0
    5.5938    2.1614   -4.2769 H   0  0  0  0  0  0  0  0  0  0  0  0
    4.7848    0.5703   -4.3594 H   0  0  0  0  0  0  0  0  0  0  0  0
    5.2990    3.1778   -1.6204 H   0  0  0  0  0  0  0  0  0  0  0  0
    6.3157    2.6423    0.5728 H   0  0  0  0  0  0  0  0  0  0  0  0
    7.1111    0.3313    1.0241 H   0  0  0  0  0  0  0  0  0  0  0  0
    5.9120   -0.9142   -2.8298 H   0  0  0  0  0  0  0  0  0  0  0  0
   -0.6999    2.4413   -2.2211 H   0  0  0  0  0  0  0  0  0  0  0  0
  1  2  2  0
  2  3  1  0
  3  4  1  0
  4  5  1  0
  5  6  1  0
  6  7  1  0
  7  8  1  0
  8  9  1  0
  9 10  1  0
  9 11  1  0
  2 12  1  0
 12 13  1  0
 13 14  2  0
 14 15  1  0
 15 16  2  0
 16 17  1  0
 17 18  1  0
 18 19  1  0
 19 20  2  0
 20 21  1  0
 21 22  2  0
 22 23  1  0
 23 24  2  0
 16 25  1  0
 25 26  1  0
 25 27  2  0
 10  4  1  0
 11  6  1  0
 13 27  1  0
 24 19  1  0
  3 28  1  0
  3 29  1  0
  4 30  1  0
  5 31  1  0
  5 32  1  0
  6 33  1  0
  7 34  1  0
  7 35  1  0
  8 36  1  0
  8 37  1  0
  9 38  1  0
 10 39  1  0
 10 40  1  0
 11 41  1  0
 12 42  1  0
 14 43  1  0
 15 44  1  0
 18 45  1  0
 18 46  1  0
 20 47  1  0
 21 48  1  0
 22 49  1  0
 24 50  1  0
 27 51  1  0
M  END
$$$$
