
     RDKit          3D

 48 51  0  0  0  0  0  0  0  0999 V2000
   -2.8165    2.0841    7.9769 C   0  0  0  0  0  0  0  0  0  0  0  0
   -2.8791    2.9260    6.8319 O   0  0  0  0  0  0  0  0  0  0  0  0
   -2.3236    2.5692    5.5998 C   0  0  0  0  0  0  0  0  0  0  0  0
   -2.4293    3.4619    4.5119 C   0  0  0  0  0  0  0  0  0  0  0  0
   -1.8775    3.1189    3.2667 C   0  0  0  0  0  0  0  0  0  0  0  0
   -1.2338    1.8902    3.1464 C   0  0  0  0  0  0  0  0  0  0  0  0
   -0.6536    1.4200    2.0143 N   0  0  0  0  0  0  0  0  0  0  0  0
   -0.1153    0.1917    2.2295 C   0  0  0  0  0  0  0  0  0  0  0  0
    0.5724   -0.5668    1.2251 N   0  0  0  0  0  0  0  0  0  0  0  0
    0.7138   -0.1392   -0.1436 C   0  0  0  0  0  0  0  0  0  0  0  0
    0.1255    0.9073   -0.5329 O   0  0  0  0  0  0  0  0  0  0  0  0
    1.5097   -0.8971   -1.0847 N   0  0  0  0  0  0  0  0  0  0  0  0
    2.4813   -1.8793   -0.5715 C   0  0  0  0  0  0  0  0  0  0  0  0
    3.4205   -2.4018   -1.6527 C   0  0  0  0  0  0  0  0  0  0  0  0
    2.6066   -2.8497   -2.8539 C   0  0  0  0  0  0  0  0  0  0  0  0
    1.9208   -1.6395   -3.5032 C   0  0  0  0  0  0  0  0  0  0  0  0
    1.3947   -0.5549   -2.5191 C   0  0  0  0  0  0  0  0  0  0  0  0
    0.8821   -2.0697   -4.4523 N   0  0  0  0  0  0  0  0  0  0  0  0
   -0.3585   -2.7403   -4.1345 C   0  0  0  0  0  0  0  0  0  0  0  0
   -0.7698   -2.9918   -2.8088 C   0  0  0  0  0  0  0  0  0  0  0  0
   -1.9834   -3.6375   -2.5530 C   0  0  0  0  0  0  0  0  0  0  0  0
   -2.8020   -4.0382   -3.6102 C   0  0  0  0  0  0  0  0  0  0  0  0
   -2.4088   -3.7936   -4.9268 C   0  0  0  0  0  0  0  0  0  0  0  0
   -1.1963   -3.1485   -5.1877 C   0  0  0  0  0  0  0  0  0  0  0  0
   -0.3340   -0.3524    3.8234 S   0  0  0  0  0  0  0  0  0  0  0  0
   -1.1539    1.0493    4.2374 C   0  0  0  0  0  0  0  0  0  0  0  0
   -1.6831    1.3702    5.4430 N   0  0  0  0  0  0  0  0  0  0  0  0
   -3.3317    1.1222    7.7700 H   0  0  0  0  0  0  0  0  0  0  0  0
   -3.3217    2.5868    8.8269 H   0  0  0  0  0  0  0  0  0  0  0  0
   -1.7573    1.8917    8.2506 H   0  0  0  0  0  0  0  0  0  0  0  0
   -2.9355    4.4108    4.6340 H   0  0  0  0  0  0  0  0  0  0  0  0
   -1.9521    3.7935    2.4236 H   0  0  0  0  0  0  0  0  0  0  0  0
    0.9594   -1.4886    1.5213 H   0  0  0  0  0  0  0  0  0  0  0  0
    3.0972   -1.4131    0.2282 H   0  0  0  0  0  0  0  0  0  0  0  0
    1.9319   -2.7422   -0.1361 H   0  0  0  0  0  0  0  0  0  0  0  0
    3.9999   -3.2621   -1.2533 H   0  0  0  0  0  0  0  0  0  0  0  0
    4.1403   -1.6073   -1.9499 H   0  0  0  0  0  0  0  0  0  0  0  0
    3.2833   -3.3279   -3.5955 H   0  0  0  0  0  0  0  0  0  0  0  0
    1.8746   -3.6221   -2.5395 H   0  0  0  0  0  0  0  0  0  0  0  0
    2.7174   -1.1386   -4.1012 H   0  0  0  0  0  0  0  0  0  0  0  0
    0.3323   -0.3321   -2.7610 H   0  0  0  0  0  0  0  0  0  0  0  0
    1.9496    0.3934   -2.6919 H   0  0  0  0  0  0  0  0  0  0  0  0
    1.0755   -1.8733   -5.4612 H   0  0  0  0  0  0  0  0  0  0  0  0
   -0.1695   -2.6973   -1.9645 H   0  0  0  0  0  0  0  0  0  0  0  0
   -2.2899   -3.8262   -1.5321 H   0  0  0  0  0  0  0  0  0  0  0  0
   -3.7412   -4.5370   -3.4091 H   0  0  0  0  0  0  0  0  0  0  0  0
   -3.0439   -4.1033   -5.7467 H   0  0  0  0  0  0  0  0  0  0  0  0
   -0.9087   -2.9665   -6.2156 H   0  0  0  0  0  0  0  0  0  0  0  0
  1  2  1  0
  2  3  1  0
  3  4  2  0
  4  5  1  0
  5  6  2  0
  6  7  1  0
  7  8  2  0
  8  9  1  0
  9 10  1  0
 10 11  2  0
 10 12  1  0
 12 13  1  0
 13 14  1  0
 14 15  1  0
 15 16  1  0
 16 17  1  0
 16 18  1  0
 18 19  1  0
 19 20  2  0
 20 21  1  0
 21 22  2  0
 22 23  1  0
 23 24  2  0
  8 25  1  0
 25 26  1  0
 26 27  2  0
  3 27  1  0
  6 26  1  0
 17 12  1  0
 19 24  1  0
  1 28  1  0
  1 29  1  0
  1 30  1  0
  4 31  1  0
  5 32  1  0
  9 33  1  0
 13 34  1  0
 13 35  1  0
 14 36  1  0
 14 37  1  0
 15 38  1  0
 15 39  1  0
 16 40  1  0
 17 41  1  0
 17 42  1  0
 18 43  1  0
 20 44  1  0
 21 45  1  0
 22 46  1  0
 23 47  1  0
 24 48  1  0
M  END
$$$$
