
     RDKit          3D

 30 32  0  0  0  0  0  0  0  0999 V2000
   -5.4237   -1.8193   -1.2764 N   0  0  0  0  0  0  0  0  0  0  0  0
   -4.6494   -1.6246   -0.4387 C   0  0  0  0  0  0  0  0  0  0  0  0
   -3.6862   -1.3827    0.6028 C   0  0  0  0  0  0  0  0  0  0  0  0
   -4.0569   -1.0573    1.9142 C   0  0  0  0  0  0  0  0  0  0  0  0
   -2.9750   -0.8784    2.7675 C   0  0  0  0  0  0  0  0  0  0  0  0
   -1.5605   -1.1267    1.8909 S   0  0  0  0  0  0  0  0  0  0  0  0
   -2.3088   -1.4555    0.4226 C   0  0  0  0  0  0  0  0  0  0  0  0
   -1.4579   -1.8480   -1.0661 S   0  0  0  0  0  0  0  0  0  0  0  0
   -2.1624   -1.2523   -2.2526 O   0  0  0  0  0  0  0  0  0  0  0  0
   -1.4148   -3.3421   -1.2178 O   0  0  0  0  0  0  0  0  0  0  0  0
    0.1653   -1.2367   -1.0012 N   0  0  0  0  0  0  0  0  0  0  0  0
    0.4932    0.1469   -0.7705 C   0  0  0  0  0  0  0  0  0  0  0  0
   -0.4926    1.1619   -0.7794 C   0  0  0  0  0  0  0  0  0  0  0  0
   -0.1444    2.5060   -0.5495 C   0  0  0  0  0  0  0  0  0  0  0  0
    1.1888    2.8645   -0.3096 C   0  0  0  0  0  0  0  0  0  0  0  0
    2.1561    1.8626   -0.3051 C   0  0  0  0  0  0  0  0  0  0  0  0
    3.6232    2.0123   -0.0631 C   0  0  0  0  0  0  0  0  0  0  0  0
    4.0473    0.5813   -0.1809 C   0  0  0  0  0  0  0  0  0  0  0  0
    5.2337    0.1830   -0.0452 O   0  0  0  0  0  0  0  0  0  0  0  0
    2.9648   -0.2984   -0.4615 N   0  0  0  0  0  0  0  0  0  0  0  0
    1.8213    0.5400   -0.5297 C   0  0  0  0  0  0  0  0  0  0  0  0
   -5.0850   -0.9576    2.2381 H   0  0  0  0  0  0  0  0  0  0  0  0
   -3.0348   -0.6263    3.8175 H   0  0  0  0  0  0  0  0  0  0  0  0
    0.9274   -1.9405   -1.1050 H   0  0  0  0  0  0  0  0  0  0  0  0
   -1.5314    0.9315   -0.9639 H   0  0  0  0  0  0  0  0  0  0  0  0
   -0.9118    3.2692   -0.5583 H   0  0  0  0  0  0  0  0  0  0  0  0
    1.4595    3.8969   -0.1304 H   0  0  0  0  0  0  0  0  0  0  0  0
    4.0965    2.6349   -0.8513 H   0  0  0  0  0  0  0  0  0  0  0  0
    3.8217    2.4042    0.9567 H   0  0  0  0  0  0  0  0  0  0  0  0
    3.0197   -1.3351   -0.5642 H   0  0  0  0  0  0  0  0  0  0  0  0
  1  2  3  0
  2  3  1  0
  3  4  1  0
  4  5  2  0
  5  6  1  0
  6  7  1  0
  7  8  1  0
  8  9  2  0
  8 10  2  0
  8 11  1  0
 11 12  1  0
 12 13  2  0
 13 14  1  0
 14 15  2  0
 15 16  1  0
 16 17  1  0
 17 18  1  0
 18 19  2  0
 18 20  1  0
 20 21  1  0
  3  7  2  0
 12 21  1  0
 21 16  2  0
  4 22  1  0
  5 23  1  0
 11 24  1  0
 13 25  1  0
 14 26  1  0
 15 27  1  0
 17 28  1  0
 17 29  1  0
 20 30  1  0
M  END
$$$$
