
     RDKit          3D

 40 42  0  0  0  0  0  0  0  0999 V2000
   -2.4371    1.3801    1.8063 O   0  0  0  0  0  0  0  0  0  0  0  0
   -1.9325    0.5837    0.9683 C   0  0  0  0  0  0  0  0  0  0  0  0
   -0.6344    0.8562    0.4062 N   0  0  0  0  0  0  0  0  0  0  0  0
    0.1266    2.0442    0.6831 C   0  0  0  0  0  0  0  0  0  0  0  0
   -0.4900    3.3038    0.7781 C   0  0  0  0  0  0  0  0  0  0  0  0
    0.2765    4.4455    1.0216 C   0  0  0  0  0  0  0  0  0  0  0  0
    1.6627    4.3448    1.1569 C   0  0  0  0  0  0  0  0  0  0  0  0
    2.2992    3.1043    1.0394 C   0  0  0  0  0  0  0  0  0  0  0  0
    1.5230    1.9540    0.7945 C   0  0  0  0  0  0  0  0  0  0  0  0
    3.6957    3.0590    1.1724 O   0  0  0  0  0  0  0  0  0  0  0  0
    4.4857    1.8795    1.0508 C   0  0  0  0  0  0  0  0  0  0  0  0
    4.4034    1.3871   -0.2392 F   0  0  0  0  0  0  0  0  0  0  0  0
    5.8030    2.1875    1.3303 F   0  0  0  0  0  0  0  0  0  0  0  0
   -2.6927   -0.6297    0.5852 C   0  0  0  0  0  0  0  0  0  0  0  0
   -4.0978   -0.6064    0.5997 C   0  0  0  0  0  0  0  0  0  0  0  0
   -4.8283   -1.7454    0.2548 C   0  0  0  0  0  0  0  0  0  0  0  0
   -4.1672   -2.9192   -0.1106 C   0  0  0  0  0  0  0  0  0  0  0  0
   -2.7669   -2.9638   -0.1413 C   0  0  0  0  0  0  0  0  0  0  0  0
   -2.0342   -1.8230    0.2344 C   0  0  0  0  0  0  0  0  0  0  0  0
   -2.1086   -4.1939   -0.4893 N   0  0  0  0  0  0  0  0  0  0  0  0
   -0.8695   -4.2692   -1.2092 C   0  0  0  0  0  0  0  0  0  0  0  0
   -0.2151   -5.4590   -1.2951 N   0  0  0  0  0  0  0  0  0  0  0  0
    0.9466   -5.5719   -1.9903 C   0  0  0  0  0  0  0  0  0  0  0  0
    1.4811   -4.4586   -2.6370 C   0  0  0  0  0  0  0  0  0  0  0  0
    0.7939   -3.2490   -2.5522 C   0  0  0  0  0  0  0  0  0  0  0  0
   -0.3653   -3.1772   -1.8482 N   0  0  0  0  0  0  0  0  0  0  0  0
   -0.1815    0.1369   -0.1997 H   0  0  0  0  0  0  0  0  0  0  0  0
   -1.5570    3.4117    0.6373 H   0  0  0  0  0  0  0  0  0  0  0  0
   -0.2040    5.4126    1.0958 H   0  0  0  0  0  0  0  0  0  0  0  0
    2.2473    5.2366    1.3440 H   0  0  0  0  0  0  0  0  0  0  0  0
    1.9908    0.9835    0.7002 H   0  0  0  0  0  0  0  0  0  0  0  0
    4.1402    1.1099    1.7730 H   0  0  0  0  0  0  0  0  0  0  0  0
   -4.6314    0.2959    0.8727 H   0  0  0  0  0  0  0  0  0  0  0  0
   -5.9103   -1.7178    0.2698 H   0  0  0  0  0  0  0  0  0  0  0  0
   -4.7461   -3.7949   -0.3760 H   0  0  0  0  0  0  0  0  0  0  0  0
   -0.9576   -1.8868    0.3030 H   0  0  0  0  0  0  0  0  0  0  0  0
   -2.5983   -5.0925   -0.2764 H   0  0  0  0  0  0  0  0  0  0  0  0
    1.4531   -6.5264   -2.0423 H   0  0  0  0  0  0  0  0  0  0  0  0
    2.4054   -4.5328   -3.1950 H   0  0  0  0  0  0  0  0  0  0  0  0
    1.1792   -2.3679   -3.0475 H   0  0  0  0  0  0  0  0  0  0  0  0
  1  2  2  0
  2  3  1  0
  3  4  1  0
  4  5  2  0
  5  6  1  0
  6  7  2  0
  7  8  1  0
  8  9  2  0
  8 10  1  0
 10 11  1  0
 11 12  1  0
 11 13  1  0
  2 14  1  0
 14 15  2  0
 15 16  1  0
 16 17  2  0
 17 18  1  0
 18 19  2  0
 18 20  1  0
 20 21  1  0
 21 22  2  0
 22 23  1  0
 23 24  2  0
 24 25  1  0
 25 26  2  0
  4  9  1  0
 14 19  1  0
 21 26  1  0
  3 27  1  0
  5 28  1  0
  6 29  1  0
  7 30  1  0
  9 31  1  0
 11 32  1  0
 15 33  1  0
 16 34  1  0
 17 35  1  0
 19 36  1  0
 20 37  1  0
 23 38  1  0
 24 39  1  0
 25 40  1  0
M  END
$$$$
