
     RDKit          3D

 11 10  0  0  0  0  0  0  0  0999 V2000
    4.1880   54.4930   73.9020 N   0  0  0  0  0  0  0  0  0  0  0  0
    2.8190   54.5260   73.4770 C   0  0  0  0  0  0  0  0  0  0  0  0
    2.7400   54.6320   71.9290 C   0  0  0  0  0  0  0  0  0  0  0  0
    1.2940   54.5660   71.4180 C   0  0  0  0  0  0  0  0  0  0  0  0
    3.4210   55.8150   71.4900 O   0  0  0  0  0  0  0  0  0  0  0  0
    4.8640   55.7630   70.7490 P   0  0  0  0  0  0  0  0  0  0  0  0
    5.3440   57.1370   70.5220 O   0  0  0  0  0  0  0  0  0  0  0  0
    5.9170   54.9800   71.6670 O   0  0  0  0  0  0  0  0  0  0  0  0
    4.6830   54.9580   69.3940 O   0  0  0  0  0  0  0  0  0  0  0  0
    2.1130   53.2480   73.9130 C   0  0  0  0  0  0  0  0  0  0  0  0
    2.7790   52.2380   73.8590 O   0  0  0  0  0  0  0  0  0  0  0  0
  1  2  1  0
  2  3  1  0
  2 10  1  0
  3  4  1  0
  3  5  1  0
  5  6  1  0
  6  7  2  0
  6  8  1  0
  6  9  1  0
 10 11  2  0
M  END
$$$$
